/*---------------------------------------------------------------------------*\
  =========                 |
  \\      /  F ield         | OpenFOAM: The Open Source CFD Toolbox
   \\    /   O peration     | Website:  https://openfoam.org
    \\  /    A nd           | Version:  8
     \\/     M anipulation  |
\*---------------------------------------------------------------------------*/
Build  : 8-1c9b5879390b
Exec   : pisoFoam
Date   : Aug 29 2022
Time   : 15:17:45
Host   : "pikachu"
PID    : 5953
I/O    : uncollated
Case   : /home/yuri/OpenFOAM/cfd-openfoam/cavityFlow/Re-4000
nProcs : 1
sigFpe : Enabling floating point exception trapping (FOAM_SIGFPE).
fileModificationChecking : Monitoring run-time modified files using timeStampMaster (fileModificationSkew 10)
allowSystemOperations : Allowing user-supplied system call operations

// * * * * * * * * * * * * * * * * * * * * * * * * * * * * * * * * * * * * * //
Create time

Create mesh for time = 0

Reading field p

Reading field U

Reading/calculating face flux field phi

Selecting incompressible transport model Newtonian
Selecting turbulence model type laminar
Selecting laminar stress model Stokes
No MRF models present

No finite volume options present

Starting time loop

Time = 0.005

Courant Number mean: 0 max: 0
smoothSolver:  Solving for Ux, Initial residual = 1, Final residual = 8.82129e-07, No Iterations 3
smoothSolver:  Solving for Uy, Initial residual = 0.219104, Final residual = 1.94476e-07, No Iterations 3
GAMG:  Solving for p, Initial residual = 1, Final residual = 0.0328786, No Iterations 3
time step continuity errors : sum local = 1.81827e-06, global = -7.23783e-22, cumulative = -7.23783e-22
GAMG:  Solving for p, Initial residual = 0.0211987, Final residual = 6.05745e-07, No Iterations 12
time step continuity errors : sum local = 7.73391e-11, global = -6.23617e-22, cumulative = -1.3474e-21
ExecutionTime = 0.01 s  ClockTime = 0 s

Time = 0.01

Courant Number mean: 0.00106467 max: 0.00886327
smoothSolver:  Solving for Ux, Initial residual = 0.324457, Final residual = 2.88524e-07, No Iterations 3
smoothSolver:  Solving for Uy, Initial residual = 0.332406, Final residual = 3.6113e-07, No Iterations 3
GAMG:  Solving for p, Initial residual = 0.106635, Final residual = 0.00289416, No Iterations 2
time step continuity errors : sum local = 3.59329e-07, global = 5.64163e-22, cumulative = -7.83237e-22
GAMG:  Solving for p, Initial residual = 0.00308307, Final residual = 9.32863e-07, No Iterations 6
time step continuity errors : sum local = 1.47956e-10, global = 1.30539e-21, cumulative = 5.22158e-22
ExecutionTime = 0.01 s  ClockTime = 0 s

Time = 0.015

Courant Number mean: 0.00211363 max: 0.0175984
smoothSolver:  Solving for Ux, Initial residual = 0.192251, Final residual = 2.16906e-07, No Iterations 3
smoothSolver:  Solving for Uy, Initial residual = 0.199459, Final residual = 3.01315e-07, No Iterations 3
GAMG:  Solving for p, Initial residual = 0.0642118, Final residual = 0.0017547, No Iterations 2
time step continuity errors : sum local = 2.55496e-07, global = -1.07327e-20, cumulative = -1.02105e-20
GAMG:  Solving for p, Initial residual = 0.00204677, Final residual = 8.90878e-07, No Iterations 6
time step continuity errors : sum local = 1.56626e-10, global = -1.51012e-20, cumulative = -2.53117e-20
ExecutionTime = 0.01 s  ClockTime = 0 s

Time = 0.02

Courant Number mean: 0.0031467 max: 0.0262067
smoothSolver:  Solving for Ux, Initial residual = 0.135899, Final residual = 1.93501e-07, No Iterations 3
smoothSolver:  Solving for Uy, Initial residual = 0.142201, Final residual = 2.95624e-07, No Iterations 3
GAMG:  Solving for p, Initial residual = 0.0448364, Final residual = 0.00128022, No Iterations 2
time step continuity errors : sum local = 2.08807e-07, global = 9.74522e-21, cumulative = -1.55665e-20
GAMG:  Solving for p, Initial residual = 0.00154503, Final residual = 5.10939e-07, No Iterations 7
time step continuity errors : sum local = 9.72715e-11, global = -1.39587e-22, cumulative = -1.57061e-20
ExecutionTime = 0.01 s  ClockTime = 0 s

Time = 0.025

Courant Number mean: 0.00416371 max: 0.0346896
smoothSolver:  Solving for Ux, Initial residual = 0.104638, Final residual = 1.8693e-07, No Iterations 3
smoothSolver:  Solving for Uy, Initial residual = 0.110243, Final residual = 3.09128e-07, No Iterations 3
GAMG:  Solving for p, Initial residual = 0.0342908, Final residual = 0.00104402, No Iterations 2
time step continuity errors : sum local = 1.85056e-07, global = 3.62098e-20, cumulative = 2.05037e-20
GAMG:  Solving for p, Initial residual = 0.00128996, Final residual = 6.02182e-07, No Iterations 7
time step continuity errors : sum local = 1.21872e-10, global = -2.92098e-20, cumulative = -8.70608e-21
ExecutionTime = 0.01 s  ClockTime = 0 s

Time = 0.03

Courant Number mean: 0.00516447 max: 0.0430481
smoothSolver:  Solving for Ux, Initial residual = 0.0847382, Final residual = 1.87927e-07, No Iterations 3
smoothSolver:  Solving for Uy, Initial residual = 0.0898362, Final residual = 3.32062e-07, No Iterations 3
GAMG:  Solving for p, Initial residual = 0.0278083, Final residual = 0.00092189, No Iterations 2
time step continuity errors : sum local = 1.74235e-07, global = 4.70562e-20, cumulative = 3.83502e-20
GAMG:  Solving for p, Initial residual = 0.00118075, Final residual = 6.99025e-07, No Iterations 7
time step continuity errors : sum local = 1.48554e-10, global = -2.04159e-20, cumulative = 1.79343e-20
ExecutionTime = 0.01 s  ClockTime = 0 s

Time = 0.035

Courant Number mean: 0.00614879 max: 0.0512834
smoothSolver:  Solving for Ux, Initial residual = 0.0709521, Final residual = 1.93333e-07, No Iterations 3
smoothSolver:  Solving for Uy, Initial residual = 0.075677, Final residual = 3.6052e-07, No Iterations 3
GAMG:  Solving for p, Initial residual = 0.025128, Final residual = 0.000872014, No Iterations 2
time step continuity errors : sum local = 1.73252e-07, global = 1.55096e-20, cumulative = 3.34439e-20
GAMG:  Solving for p, Initial residual = 0.00121952, Final residual = 8.07493e-07, No Iterations 7
time step continuity errors : sum local = 1.78675e-10, global = 5.26449e-20, cumulative = 8.60888e-20
ExecutionTime = 0.01 s  ClockTime = 0 s

Time = 0.04

Courant Number mean: 0.0071165 max: 0.0593961
smoothSolver:  Solving for Ux, Initial residual = 0.0609257, Final residual = 2.02067e-07, No Iterations 3
smoothSolver:  Solving for Uy, Initial residual = 0.0652755, Final residual = 3.92596e-07, No Iterations 3
GAMG:  Solving for p, Initial residual = 0.0248262, Final residual = 0.000868264, No Iterations 2
time step continuity errors : sum local = 1.79455e-07, global = -4.62859e-20, cumulative = 3.98029e-20
GAMG:  Solving for p, Initial residual = 0.00130921, Final residual = 9.22864e-07, No Iterations 7
time step continuity errors : sum local = 2.11357e-10, global = 2.03745e-20, cumulative = 6.01774e-20
ExecutionTime = 0.01 s  ClockTime = 0 s

Time = 0.045

Courant Number mean: 0.00806747 max: 0.0673868
smoothSolver:  Solving for Ux, Initial residual = 0.0532417, Final residual = 2.12782e-07, No Iterations 3
smoothSolver:  Solving for Uy, Initial residual = 0.0573175, Final residual = 4.27288e-07, No Iterations 3
GAMG:  Solving for p, Initial residual = 0.0260746, Final residual = 0.000890617, No Iterations 2
time step continuity errors : sum local = 1.90126e-07, global = -7.44446e-21, cumulative = 5.27329e-20
GAMG:  Solving for p, Initial residual = 0.00142637, Final residual = 4.70515e-07, No Iterations 8
time step continuity errors : sum local = 1.11269e-10, global = 2.12224e-20, cumulative = 7.39553e-20
ExecutionTime = 0.01 s  ClockTime = 0 s

Time = 0.05

Courant Number mean: 0.00900155 max: 0.0752559
smoothSolver:  Solving for Ux, Initial residual = 0.0471582, Final residual = 2.25039e-07, No Iterations 3
smoothSolver:  Solving for Uy, Initial residual = 0.0510338, Final residual = 4.64063e-07, No Iterations 3
GAMG:  Solving for p, Initial residual = 0.0272411, Final residual = 0.000924249, No Iterations 2
time step continuity errors : sum local = 2.03069e-07, global = 1.126e-20, cumulative = 8.52153e-20
GAMG:  Solving for p, Initial residual = 0.0015474, Final residual = 5.21685e-07, No Iterations 8
time step continuity errors : sum local = 1.27038e-10, global = 1.0332e-19, cumulative = 1.88535e-19
ExecutionTime = 0.01 s  ClockTime = 0 s

Time = 0.055

Courant Number mean: 0.00991866 max: 0.0830098
smoothSolver:  Solving for Ux, Initial residual = 0.0422164, Final residual = 2.38621e-07, No Iterations 3
smoothSolver:  Solving for Uy, Initial residual = 0.0459493, Final residual = 5.02651e-07, No Iterations 3
GAMG:  Solving for p, Initial residual = 0.0282717, Final residual = 0.000961383, No Iterations 2
time step continuity errors : sum local = 2.17118e-07, global = 2.28509e-21, cumulative = 1.9082e-19
GAMG:  Solving for p, Initial residual = 0.00166694, Final residual = 5.7193e-07, No Iterations 8
time step continuity errors : sum local = 1.43212e-10, global = -5.96604e-21, cumulative = 1.84854e-19
ExecutionTime = 0.01 s  ClockTime = 0 s

Time = 0.06

Courant Number mean: 0.0108188 max: 0.0906661
smoothSolver:  Solving for Ux, Initial residual = 0.038117, Final residual = 2.53671e-07, No Iterations 3
smoothSolver:  Solving for Uy, Initial residual = 0.0417485, Final residual = 5.43041e-07, No Iterations 3
GAMG:  Solving for p, Initial residual = 0.0294888, Final residual = 0.000998484, No Iterations 2
time step continuity errors : sum local = 2.31704e-07, global = 1.04297e-19, cumulative = 2.89151e-19
GAMG:  Solving for p, Initial residual = 0.00178146, Final residual = 6.19492e-07, No Iterations 8
time step continuity errors : sum local = 1.59595e-10, global = 4.04388e-20, cumulative = 3.2959e-19
ExecutionTime = 0.01 s  ClockTime = 0 s

Time = 0.065

Courant Number mean: 0.0117018 max: 0.0982081
smoothSolver:  Solving for Ux, Initial residual = 0.0346579, Final residual = 2.69554e-07, No Iterations 3
smoothSolver:  Solving for Uy, Initial residual = 0.0382198, Final residual = 5.85206e-07, No Iterations 3
GAMG:  Solving for p, Initial residual = 0.0301756, Final residual = 0.00102097, No Iterations 2
time step continuity errors : sum local = 2.448e-07, global = 9.18894e-20, cumulative = 4.2148e-19
GAMG:  Solving for p, Initial residual = 0.00186162, Final residual = 6.42356e-07, No Iterations 8
time step continuity errors : sum local = 1.72041e-10, global = 2.58391e-20, cumulative = 4.47319e-19
ExecutionTime = 0.02 s  ClockTime = 0 s

Time = 0.07

Courant Number mean: 0.0125677 max: 0.105636
smoothSolver:  Solving for Ux, Initial residual = 0.0316963, Final residual = 2.8622e-07, No Iterations 3
smoothSolver:  Solving for Uy, Initial residual = 0.0352188, Final residual = 6.29261e-07, No Iterations 3
GAMG:  Solving for p, Initial residual = 0.0305661, Final residual = 0.00104176, No Iterations 2
time step continuity errors : sum local = 2.59601e-07, global = 1.70916e-20, cumulative = 4.6441e-19
GAMG:  Solving for p, Initial residual = 0.00193434, Final residual = 6.72629e-07, No Iterations 8
time step continuity errors : sum local = 1.8756e-10, global = 1.18494e-20, cumulative = 4.7626e-19
ExecutionTime = 0.02 s  ClockTime = 0 s

Time = 0.075

Courant Number mean: 0.0134164 max: 0.11295
smoothSolver:  Solving for Ux, Initial residual = 0.0291305, Final residual = 3.03515e-07, No Iterations 3
smoothSolver:  Solving for Uy, Initial residual = 0.032633, Final residual = 6.75375e-07, No Iterations 3
GAMG:  Solving for p, Initial residual = 0.0311181, Final residual = 0.00105598, No Iterations 2
time step continuity errors : sum local = 2.73949e-07, global = 6.17904e-20, cumulative = 5.3805e-19
GAMG:  Solving for p, Initial residual = 0.0019936, Final residual = 6.93543e-07, No Iterations 8
time step continuity errors : sum local = 2.01641e-10, global = -7.47047e-20, cumulative = 4.63345e-19
ExecutionTime = 0.02 s  ClockTime = 0 s

Time = 0.08

Courant Number mean: 0.0142478 max: 0.120147
smoothSolver:  Solving for Ux, Initial residual = 0.0269158, Final residual = 3.21306e-07, No Iterations 3
smoothSolver:  Solving for Uy, Initial residual = 0.030381, Final residual = 7.23859e-07, No Iterations 3
GAMG:  Solving for p, Initial residual = 0.0314037, Final residual = 0.00106301, No Iterations 2
time step continuity errors : sum local = 2.87444e-07, global = -6.73532e-20, cumulative = 3.95992e-19
GAMG:  Solving for p, Initial residual = 0.00204504, Final residual = 7.04471e-07, No Iterations 8
time step continuity errors : sum local = 2.13732e-10, global = 4.65289e-22, cumulative = 3.96457e-19
ExecutionTime = 0.02 s  ClockTime = 0 s

Time = 0.085

Courant Number mean: 0.015062 max: 0.127227
smoothSolver:  Solving for Ux, Initial residual = 0.0249853, Final residual = 3.39536e-07, No Iterations 3
smoothSolver:  Solving for Uy, Initial residual = 0.028412, Final residual = 7.74974e-07, No Iterations 3
GAMG:  Solving for p, Initial residual = 0.0315381, Final residual = 0.00106588, No Iterations 2
time step continuity errors : sum local = 3.00612e-07, global = 6.60604e-20, cumulative = 4.62518e-19
GAMG:  Solving for p, Initial residual = 0.00209092, Final residual = 7.10084e-07, No Iterations 8
time step continuity errors : sum local = 2.24871e-10, global = -9.14345e-20, cumulative = 3.71083e-19
ExecutionTime = 0.02 s  ClockTime = 0 s

Time = 0.09

Courant Number mean: 0.0158586 max: 0.134187
smoothSolver:  Solving for Ux, Initial residual = 0.0233084, Final residual = 3.58473e-07, No Iterations 3
smoothSolver:  Solving for Uy, Initial residual = 0.0266758, Final residual = 8.28995e-07, No Iterations 3
GAMG:  Solving for p, Initial residual = 0.0315936, Final residual = 0.00106449, No Iterations 2
time step continuity errors : sum local = 3.13208e-07, global = 1.51477e-19, cumulative = 5.22561e-19
GAMG:  Solving for p, Initial residual = 0.00212489, Final residual = 7.09652e-07, No Iterations 8
time step continuity errors : sum local = 2.34643e-10, global = -1.02777e-20, cumulative = 5.12283e-19
ExecutionTime = 0.02 s  ClockTime = 0 s

Time = 0.095

Courant Number mean: 0.016638 max: 0.141049
smoothSolver:  Solving for Ux, Initial residual = 0.0218243, Final residual = 3.79512e-07, No Iterations 3
smoothSolver:  Solving for Uy, Initial residual = 0.0251288, Final residual = 8.86404e-07, No Iterations 3
GAMG:  Solving for p, Initial residual = 0.0316265, Final residual = 0.00106357, No Iterations 2
time step continuity errors : sum local = 3.26862e-07, global = -5.85748e-20, cumulative = 4.53708e-19
GAMG:  Solving for p, Initial residual = 0.00215052, Final residual = 7.12642e-07, No Iterations 8
time step continuity errors : sum local = 2.46556e-10, global = 1.21285e-19, cumulative = 5.74994e-19
ExecutionTime = 0.02 s  ClockTime = 0 s

Time = 0.1

Courant Number mean: 0.0174002 max: 0.147862
smoothSolver:  Solving for Ux, Initial residual = 0.0205131, Final residual = 4.01761e-07, No Iterations 3
smoothSolver:  Solving for Uy, Initial residual = 0.0237639, Final residual = 9.47544e-07, No Iterations 3
GAMG:  Solving for p, Initial residual = 0.0316859, Final residual = 0.00105675, No Iterations 2
time step continuity errors : sum local = 3.39992e-07, global = 1.66067e-19, cumulative = 7.41061e-19
GAMG:  Solving for p, Initial residual = 0.00217032, Final residual = 7.09028e-07, No Iterations 8
time step continuity errors : sum local = 2.57287e-10, global = 7.40016e-20, cumulative = 8.15062e-19
ExecutionTime = 0.02 s  ClockTime = 0 s

Time = 0.105

Courant Number mean: 0.0181452 max: 0.154556
smoothSolver:  Solving for Ux, Initial residual = 0.019329, Final residual = 4.2464e-07, No Iterations 3
smoothSolver:  Solving for Uy, Initial residual = 0.0225469, Final residual = 1.01277e-06, No Iterations 3
GAMG:  Solving for p, Initial residual = 0.0318813, Final residual = 0.00103458, No Iterations 2
time step continuity errors : sum local = 3.48675e-07, global = -1.60576e-20, cumulative = 7.99005e-19
GAMG:  Solving for p, Initial residual = 0.00216154, Final residual = 6.66046e-07, No Iterations 8
time step continuity errors : sum local = 2.53252e-10, global = 9.42986e-21, cumulative = 8.08434e-19
ExecutionTime = 0.02 s  ClockTime = 0 s

Time = 0.11

Courant Number mean: 0.0188727 max: 0.161136
smoothSolver:  Solving for Ux, Initial residual = 0.0182662, Final residual = 4.47799e-07, No Iterations 3
smoothSolver:  Solving for Uy, Initial residual = 0.0214417, Final residual = 1.08253e-06, No Iterations 3
GAMG:  Solving for p, Initial residual = 0.0317568, Final residual = 0.00103157, No Iterations 2
time step continuity errors : sum local = 3.6402e-07, global = -1.1931e-19, cumulative = 6.89124e-19
GAMG:  Solving for p, Initial residual = 0.00218154, Final residual = 6.71147e-07, No Iterations 8
time step continuity errors : sum local = 2.67672e-10, global = 5.66929e-20, cumulative = 7.45817e-19
ExecutionTime = 0.02 s  ClockTime = 0 s

Time = 0.115

Courant Number mean: 0.0195824 max: 0.167595
smoothSolver:  Solving for Ux, Initial residual = 0.0173045, Final residual = 4.70744e-07, No Iterations 3
smoothSolver:  Solving for Uy, Initial residual = 0.0204607, Final residual = 1.15727e-06, No Iterations 3
GAMG:  Solving for p, Initial residual = 0.0327273, Final residual = 0.00102795, No Iterations 2
time step continuity errors : sum local = 3.80449e-07, global = 1.8869e-19, cumulative = 9.34507e-19
GAMG:  Solving for p, Initial residual = 0.00221918, Final residual = 6.64194e-07, No Iterations 8
time step continuity errors : sum local = 2.78647e-10, global = 3.30045e-20, cumulative = 9.67512e-19
ExecutionTime = 0.03 s  ClockTime = 0 s

Time = 0.12

Courant Number mean: 0.0202746 max: 0.173928
smoothSolver:  Solving for Ux, Initial residual = 0.0164605, Final residual = 4.92282e-07, No Iterations 3
smoothSolver:  Solving for Uy, Initial residual = 0.0195827, Final residual = 1.23775e-06, No Iterations 3
GAMG:  Solving for p, Initial residual = 0.026007, Final residual = 0.000930806, No Iterations 2
time step continuity errors : sum local = 3.61811e-07, global = 5.99139e-20, cumulative = 1.02743e-18
GAMG:  Solving for p, Initial residual = 0.00190058, Final residual = 5.85974e-07, No Iterations 8
time step continuity errors : sum local = 2.55245e-10, global = -1.13593e-19, cumulative = 9.13833e-19
ExecutionTime = 0.03 s  ClockTime = 0 s

Time = 0.125

Courant Number mean: 0.0209498 max: 0.18014
smoothSolver:  Solving for Ux, Initial residual = 0.0157019, Final residual = 5.27751e-07, No Iterations 3
smoothSolver:  Solving for Uy, Initial residual = 0.0187729, Final residual = 1.32224e-06, No Iterations 3
GAMG:  Solving for p, Initial residual = 0.0229699, Final residual = 0.000898665, No Iterations 2
time step continuity errors : sum local = 3.61391e-07, global = -1.04276e-19, cumulative = 8.09557e-19
GAMG:  Solving for p, Initial residual = 0.00183198, Final residual = 5.50858e-07, No Iterations 8
time step continuity errors : sum local = 2.47523e-10, global = -4.14831e-20, cumulative = 7.68074e-19
ExecutionTime = 0.03 s  ClockTime = 0 s

Time = 0.13

Courant Number mean: 0.0216091 max: 0.186392
smoothSolver:  Solving for Ux, Initial residual = 0.0150029, Final residual = 5.69454e-07, No Iterations 3
smoothSolver:  Solving for Uy, Initial residual = 0.0180285, Final residual = 1.41086e-06, No Iterations 3
GAMG:  Solving for p, Initial residual = 0.026863, Final residual = 0.000934818, No Iterations 2
time step continuity errors : sum local = 3.8696e-07, global = -2.28095e-20, cumulative = 7.45264e-19
GAMG:  Solving for p, Initial residual = 0.00202518, Final residual = 5.97227e-07, No Iterations 8
time step continuity errors : sum local = 2.77985e-10, global = 2.26441e-20, cumulative = 7.67908e-19
ExecutionTime = 0.03 s  ClockTime = 0 s

Time = 0.135

Courant Number mean: 0.0222556 max: 0.192504
smoothSolver:  Solving for Ux, Initial residual = 0.0143407, Final residual = 6.06421e-07, No Iterations 3
smoothSolver:  Solving for Uy, Initial residual = 0.0173563, Final residual = 1.50573e-06, No Iterations 3
GAMG:  Solving for p, Initial residual = 0.0280233, Final residual = 0.000915585, No Iterations 2
time step continuity errors : sum local = 3.9258e-07, global = 5.49041e-20, cumulative = 8.22812e-19
GAMG:  Solving for p, Initial residual = 0.00201827, Final residual = 5.3979e-07, No Iterations 8
time step continuity errors : sum local = 2.60844e-10, global = -1.07223e-19, cumulative = 7.15589e-19
ExecutionTime = 0.03 s  ClockTime = 0 s

Time = 0.14

Courant Number mean: 0.0228868 max: 0.198489
smoothSolver:  Solving for Ux, Initial residual = 0.0137145, Final residual = 6.42806e-07, No Iterations 3
smoothSolver:  Solving for Uy, Initial residual = 0.016722, Final residual = 1.60723e-06, No Iterations 3
GAMG:  Solving for p, Initial residual = 0.0297466, Final residual = 0.000913361, No Iterations 2
time step continuity errors : sum local = 4.0648e-07, global = 1.10956e-19, cumulative = 8.26545e-19
GAMG:  Solving for p, Initial residual = 0.00202816, Final residual = 5.54601e-07, No Iterations 8
time step continuity errors : sum local = 2.7884e-10, global = 1.18163e-19, cumulative = 9.44708e-19
ExecutionTime = 0.03 s  ClockTime = 0 s

Time = 0.145

Courant Number mean: 0.0234999 max: 0.204331
smoothSolver:  Solving for Ux, Initial residual = 0.0131223, Final residual = 6.79542e-07, No Iterations 3
smoothSolver:  Solving for Uy, Initial residual = 0.016157, Final residual = 1.71294e-06, No Iterations 3
GAMG:  Solving for p, Initial residual = 0.0267786, Final residual = 0.000974469, No Iterations 2
time step continuity errors : sum local = 4.47281e-07, global = -3.77298e-20, cumulative = 9.06978e-19
GAMG:  Solving for p, Initial residual = 0.00229706, Final residual = 5.88785e-07, No Iterations 8
time step continuity errors : sum local = 3.07704e-10, global = -5.2526e-21, cumulative = 9.01725e-19
ExecutionTime = 0.03 s  ClockTime = 0 s

Time = 0.15

Courant Number mean: 0.024103 max: 0.21002
smoothSolver:  Solving for Ux, Initial residual = 0.0125683, Final residual = 7.13945e-07, No Iterations 3
smoothSolver:  Solving for Uy, Initial residual = 0.0156986, Final residual = 1.8387e-06, No Iterations 3
GAMG:  Solving for p, Initial residual = 0.027268, Final residual = 0.000908674, No Iterations 2
time step continuity errors : sum local = 4.31534e-07, global = 4.51434e-20, cumulative = 9.46869e-19
GAMG:  Solving for p, Initial residual = 0.00188724, Final residual = 5.81297e-07, No Iterations 8
time step continuity errors : sum local = 3.10433e-10, global = -2.44018e-21, cumulative = 9.44429e-19
ExecutionTime = 0.03 s  ClockTime = 0 s

Time = 0.155

Courant Number mean: 0.024704 max: 0.215545
smoothSolver:  Solving for Ux, Initial residual = 0.0120439, Final residual = 7.75384e-07, No Iterations 3
smoothSolver:  Solving for Uy, Initial residual = 0.0151932, Final residual = 1.95447e-06, No Iterations 3
GAMG:  Solving for p, Initial residual = 0.0311293, Final residual = 0.00092147, No Iterations 2
time step continuity errors : sum local = 4.47688e-07, global = -2.33865e-19, cumulative = 7.10564e-19
GAMG:  Solving for p, Initial residual = 0.0021867, Final residual = 5.74329e-07, No Iterations 8
time step continuity errors : sum local = 3.16079e-10, global = -1.15185e-19, cumulative = 5.95379e-19
ExecutionTime = 0.03 s  ClockTime = 0 s

Time = 0.16

Courant Number mean: 0.0252922 max: 0.221229
smoothSolver:  Solving for Ux, Initial residual = 0.0115087, Final residual = 8.12503e-07, No Iterations 3
smoothSolver:  Solving for Uy, Initial residual = 0.0146271, Final residual = 2.06656e-06, No Iterations 3
GAMG:  Solving for p, Initial residual = 0.0293126, Final residual = 0.000911026, No Iterations 2
time step continuity errors : sum local = 4.58849e-07, global = -4.41731e-20, cumulative = 5.51206e-19
GAMG:  Solving for p, Initial residual = 0.00223678, Final residual = 5.1717e-07, No Iterations 8
time step continuity errors : sum local = 2.94094e-10, global = -1.18742e-19, cumulative = 4.32464e-19
ExecutionTime = 0.03 s  ClockTime = 0 s

Time = 0.165

Courant Number mean: 0.0258703 max: 0.226767
smoothSolver:  Solving for Ux, Initial residual = 0.0110532, Final residual = 8.63495e-07, No Iterations 3
smoothSolver:  Solving for Uy, Initial residual = 0.0143586, Final residual = 2.21812e-06, No Iterations 3
GAMG:  Solving for p, Initial residual = 0.0229117, Final residual = 0.000795934, No Iterations 2
time step continuity errors : sum local = 4.145e-07, global = 1.24429e-19, cumulative = 5.56893e-19
GAMG:  Solving for p, Initial residual = 0.00197317, Final residual = 9.40153e-07, No Iterations 7
time step continuity errors : sum local = 5.51956e-10, global = 1.74768e-19, cumulative = 7.31661e-19
ExecutionTime = 0.03 s  ClockTime = 0 s

Time = 0.17

Courant Number mean: 0.0264402 max: 0.232135
smoothSolver:  Solving for Ux, Initial residual = 0.0105971, Final residual = 9.19966e-07, No Iterations 3
smoothSolver:  Solving for Uy, Initial residual = 0.0139727, Final residual = 2.35492e-06, No Iterations 3
GAMG:  Solving for p, Initial residual = 0.0255889, Final residual = 0.000922557, No Iterations 2
time step continuity errors : sum local = 4.90707e-07, global = -5.17401e-20, cumulative = 6.7992e-19
GAMG:  Solving for p, Initial residual = 0.00210967, Final residual = 6.01987e-07, No Iterations 8
time step continuity errors : sum local = 3.62408e-10, global = 1.5323e-19, cumulative = 8.3315e-19
ExecutionTime = 0.04 s  ClockTime = 0 s

Time = 0.175

Courant Number mean: 0.0270003 max: 0.237349
smoothSolver:  Solving for Ux, Initial residual = 0.0101486, Final residual = 9.71587e-07, No Iterations 3
smoothSolver:  Solving for Uy, Initial residual = 0.0136196, Final residual = 2.49287e-06, No Iterations 3
GAMG:  Solving for p, Initial residual = 0.024446, Final residual = 0.000816662, No Iterations 2
time step continuity errors : sum local = 4.47892e-07, global = -5.91848e-20, cumulative = 7.73966e-19
GAMG:  Solving for p, Initial residual = 0.00204355, Final residual = 9.40691e-07, No Iterations 7
time step continuity errors : sum local = 5.83587e-10, global = 9.65216e-21, cumulative = 7.83618e-19
ExecutionTime = 0.04 s  ClockTime = 0 s

Time = 0.18

Courant Number mean: 0.0275453 max: 0.242401
smoothSolver:  Solving for Ux, Initial residual = 0.00970977, Final residual = 1.02424e-06, No Iterations 3
smoothSolver:  Solving for Uy, Initial residual = 0.0132245, Final residual = 2.63702e-06, No Iterations 3
GAMG:  Solving for p, Initial residual = 0.0244438, Final residual = 0.000799403, No Iterations 2
time step continuity errors : sum local = 4.51478e-07, global = 8.35452e-21, cumulative = 7.91972e-19
GAMG:  Solving for p, Initial residual = 0.00208006, Final residual = 9.86203e-07, No Iterations 7
time step continuity errors : sum local = 6.31839e-10, global = 3.29838e-21, cumulative = 7.95271e-19
ExecutionTime = 0.04 s  ClockTime = 0 s

Time = 0.185

Courant Number mean: 0.0280786 max: 0.247281
smoothSolver:  Solving for Ux, Initial residual = 0.00930683, Final residual = 1.07566e-06, No Iterations 3
smoothSolver:  Solving for Uy, Initial residual = 0.0128732, Final residual = 2.78342e-06, No Iterations 3
GAMG:  Solving for p, Initial residual = 0.0239421, Final residual = 0.00081528, No Iterations 2
time step continuity errors : sum local = 4.73079e-07, global = 6.01774e-20, cumulative = 8.55448e-19
GAMG:  Solving for p, Initial residual = 0.00203169, Final residual = 5.38092e-07, No Iterations 8
time step continuity errors : sum local = 3.56142e-10, global = -4.88295e-20, cumulative = 8.06619e-19
ExecutionTime = 0.04 s  ClockTime = 0 s

Time = 0.19

Courant Number mean: 0.028602 max: 0.251902
smoothSolver:  Solving for Ux, Initial residual = 0.00894455, Final residual = 1.12721e-06, No Iterations 3
smoothSolver:  Solving for Uy, Initial residual = 0.0125935, Final residual = 2.93457e-06, No Iterations 3
GAMG:  Solving for p, Initial residual = 0.0251188, Final residual = 0.000939643, No Iterations 2
time step continuity errors : sum local = 5.58916e-07, global = 2.24704e-19, cumulative = 1.03132e-18
GAMG:  Solving for p, Initial residual = 0.00218086, Final residual = 6.43143e-07, No Iterations 8
time step continuity errors : sum local = 4.34728e-10, global = -1.64811e-19, cumulative = 8.66512e-19
ExecutionTime = 0.04 s  ClockTime = 0 s

Time = 0.195

Courant Number mean: 0.0291156 max: 0.256436
smoothSolver:  Solving for Ux, Initial residual = 0.00858418, Final residual = 1.1751e-06, No Iterations 3
smoothSolver:  Solving for Uy, Initial residual = 0.0123322, Final residual = 3.08168e-06, No Iterations 3
GAMG:  Solving for p, Initial residual = 0.0221078, Final residual = 0.00077973, No Iterations 2
time step continuity errors : sum local = 4.77372e-07, global = -5.46766e-20, cumulative = 8.11835e-19
GAMG:  Solving for p, Initial residual = 0.00202391, Final residual = 4.63975e-07, No Iterations 8
time step continuity errors : sum local = 3.22756e-10, global = 1.70748e-19, cumulative = 9.82583e-19
ExecutionTime = 0.04 s  ClockTime = 0 s

Time = 0.2

Courant Number mean: 0.0296195 max: 0.26123
smoothSolver:  Solving for Ux, Initial residual = 0.00823253, Final residual = 1.22397e-06, No Iterations 3
smoothSolver:  Solving for Uy, Initial residual = 0.0120378, Final residual = 3.23757e-06, No Iterations 3
GAMG:  Solving for p, Initial residual = 0.0217813, Final residual = 0.000777594, No Iterations 2
time step continuity errors : sum local = 4.84984e-07, global = 2.06299e-19, cumulative = 1.18888e-18
GAMG:  Solving for p, Initial residual = 0.00205252, Final residual = 4.77829e-07, No Iterations 8
time step continuity errors : sum local = 3.39909e-10, global = -9.06616e-20, cumulative = 1.09822e-18
ExecutionTime = 0.04 s  ClockTime = 0 s

Time = 0.205

Courant Number mean: 0.0301161 max: 0.265825
smoothSolver:  Solving for Ux, Initial residual = 0.00788819, Final residual = 1.27147e-06, No Iterations 3
smoothSolver:  Solving for Uy, Initial residual = 0.0117343, Final residual = 3.39163e-06, No Iterations 3
GAMG:  Solving for p, Initial residual = 0.0235464, Final residual = 0.000750783, No Iterations 2
time step continuity errors : sum local = 4.81836e-07, global = 1.4517e-19, cumulative = 1.24339e-18
GAMG:  Solving for p, Initial residual = 0.00209426, Final residual = 4.8647e-07, No Iterations 8
time step continuity errors : sum local = 3.56066e-10, global = -2.02679e-20, cumulative = 1.22312e-18
ExecutionTime = 0.04 s  ClockTime = 0 s

Time = 0.21

Courant Number mean: 0.0306015 max: 0.270175
smoothSolver:  Solving for Ux, Initial residual = 0.0075604, Final residual = 1.31678e-06, No Iterations 3
smoothSolver:  Solving for Uy, Initial residual = 0.0114599, Final residual = 3.54261e-06, No Iterations 3
GAMG:  Solving for p, Initial residual = 0.0206332, Final residual = 0.000763026, No Iterations 2
time step continuity errors : sum local = 5.01116e-07, global = 2.29336e-20, cumulative = 1.24606e-18
GAMG:  Solving for p, Initial residual = 0.00198939, Final residual = 4.55184e-07, No Iterations 8
time step continuity errors : sum local = 3.41382e-10, global = -1.39044e-20, cumulative = 1.23215e-18
ExecutionTime = 0.04 s  ClockTime = 0 s

Time = 0.215

Courant Number mean: 0.0310809 max: 0.274329
smoothSolver:  Solving for Ux, Initial residual = 0.00724657, Final residual = 1.36089e-06, No Iterations 3
smoothSolver:  Solving for Uy, Initial residual = 0.0111778, Final residual = 3.69602e-06, No Iterations 3
GAMG:  Solving for p, Initial residual = 0.0253338, Final residual = 0.000921862, No Iterations 2
time step continuity errors : sum local = 6.14313e-07, global = 1.09188e-19, cumulative = 1.34134e-18
GAMG:  Solving for p, Initial residual = 0.00208557, Final residual = 6.64207e-07, No Iterations 8
time step continuity errors : sum local = 5.04177e-10, global = -1.55924e-20, cumulative = 1.32575e-18
ExecutionTime = 0.04 s  ClockTime = 0 s

Time = 0.22

Courant Number mean: 0.0315523 max: 0.278286
smoothSolver:  Solving for Ux, Initial residual = 0.00697915, Final residual = 1.39888e-06, No Iterations 3
smoothSolver:  Solving for Uy, Initial residual = 0.0109535, Final residual = 3.8393e-06, No Iterations 3
GAMG:  Solving for p, Initial residual = 0.0218764, Final residual = 0.000776313, No Iterations 2
time step continuity errors : sum local = 5.25888e-07, global = 1.06003e-19, cumulative = 1.43175e-18
GAMG:  Solving for p, Initial residual = 0.00202763, Final residual = 5.49002e-07, No Iterations 8
time step continuity errors : sum local = 4.25441e-10, global = 6.06427e-20, cumulative = 1.49239e-18
ExecutionTime = 0.04 s  ClockTime = 0 s

Time = 0.225

Courant Number mean: 0.0320144 max: 0.282055
smoothSolver:  Solving for Ux, Initial residual = 0.00673263, Final residual = 1.43619e-06, No Iterations 3
smoothSolver:  Solving for Uy, Initial residual = 0.0106939, Final residual = 3.98652e-06, No Iterations 3
GAMG:  Solving for p, Initial residual = 0.0199477, Final residual = 0.000769391, No Iterations 2
time step continuity errors : sum local = 5.33503e-07, global = 4.18967e-20, cumulative = 1.53429e-18
GAMG:  Solving for p, Initial residual = 0.00201122, Final residual = 5.76895e-07, No Iterations 8
time step continuity errors : sum local = 4.57809e-10, global = 9.30888e-20, cumulative = 1.62738e-18
ExecutionTime = 0.04 s  ClockTime = 0 s

Time = 0.23

Courant Number mean: 0.0324661 max: 0.285627
smoothSolver:  Solving for Ux, Initial residual = 0.00650646, Final residual = 1.47011e-06, No Iterations 3
smoothSolver:  Solving for Uy, Initial residual = 0.0104539, Final residual = 4.12636e-06, No Iterations 3
GAMG:  Solving for p, Initial residual = 0.0195528, Final residual = 0.00075915, No Iterations 2
time step continuity errors : sum local = 5.38394e-07, global = 2.91374e-20, cumulative = 1.65652e-18
GAMG:  Solving for p, Initial residual = 0.0019831, Final residual = 5.82734e-07, No Iterations 8
time step continuity errors : sum local = 4.73557e-10, global = 7.68761e-20, cumulative = 1.73339e-18
ExecutionTime = 0.05 s  ClockTime = 0 s

Time = 0.235

Courant Number mean: 0.0329052 max: 0.289
smoothSolver:  Solving for Ux, Initial residual = 0.00628829, Final residual = 1.50394e-06, No Iterations 3
smoothSolver:  Solving for Uy, Initial residual = 0.0102166, Final residual = 4.26026e-06, No Iterations 3
GAMG:  Solving for p, Initial residual = 0.0191009, Final residual = 0.000740556, No Iterations 2
time step continuity errors : sum local = 5.37359e-07, global = 6.1232e-20, cumulative = 1.79462e-18
GAMG:  Solving for p, Initial residual = 0.00194583, Final residual = 5.66357e-07, No Iterations 8
time step continuity errors : sum local = 4.71357e-10, global = -3.84923e-19, cumulative = 1.4097e-18
ExecutionTime = 0.05 s  ClockTime = 0 s

Time = 0.24

Courant Number mean: 0.0333309 max: 0.29217
smoothSolver:  Solving for Ux, Initial residual = 0.00607819, Final residual = 1.53485e-06, No Iterations 3
smoothSolver:  Solving for Uy, Initial residual = 0.00999041, Final residual = 4.38829e-06, No Iterations 3
GAMG:  Solving for p, Initial residual = 0.0193605, Final residual = 0.000721779, No Iterations 2
time step continuity errors : sum local = 5.36331e-07, global = 1.48107e-19, cumulative = 1.55781e-18
GAMG:  Solving for p, Initial residual = 0.00190338, Final residual = 5.35176e-07, No Iterations 8
time step continuity errors : sum local = 4.56688e-10, global = -6.28554e-20, cumulative = 1.49495e-18
ExecutionTime = 0.05 s  ClockTime = 0 s

Time = 0.245

Courant Number mean: 0.0337486 max: 0.295137
smoothSolver:  Solving for Ux, Initial residual = 0.00587638, Final residual = 1.56873e-06, No Iterations 3
smoothSolver:  Solving for Uy, Initial residual = 0.00976858, Final residual = 4.50971e-06, No Iterations 3
GAMG:  Solving for p, Initial residual = 0.019095, Final residual = 0.000731119, No Iterations 2
time step continuity errors : sum local = 5.55598e-07, global = 1.18328e-19, cumulative = 1.61328e-18
GAMG:  Solving for p, Initial residual = 0.00188239, Final residual = 5.88219e-07, No Iterations 8
time step continuity errors : sum local = 5.13556e-10, global = 1.34158e-19, cumulative = 1.74744e-18
ExecutionTime = 0.05 s  ClockTime = 0 s

Time = 0.25

Courant Number mean: 0.0341567 max: 0.297901
smoothSolver:  Solving for Ux, Initial residual = 0.00568618, Final residual = 1.59905e-06, No Iterations 3
smoothSolver:  Solving for Uy, Initial residual = 0.00955752, Final residual = 4.62574e-06, No Iterations 3
GAMG:  Solving for p, Initial residual = 0.0199448, Final residual = 0.000704711, No Iterations 2
time step continuity errors : sum local = 5.46053e-07, global = -1.60473e-19, cumulative = 1.58697e-18
GAMG:  Solving for p, Initial residual = 0.0018157, Final residual = 5.2209e-07, No Iterations 8
time step continuity errors : sum local = 4.66149e-10, global = 1.06437e-19, cumulative = 1.6934e-18
ExecutionTime = 0.05 s  ClockTime = 0 s

Time = 0.255

Courant Number mean: 0.0345561 max: 0.300455
smoothSolver:  Solving for Ux, Initial residual = 0.00550208, Final residual = 1.62884e-06, No Iterations 3
smoothSolver:  Solving for Uy, Initial residual = 0.00933013, Final residual = 4.74148e-06, No Iterations 3
GAMG:  Solving for p, Initial residual = 0.0192681, Final residual = 0.000735174, No Iterations 2
time step continuity errors : sum local = 5.82096e-07, global = -6.02187e-20, cumulative = 1.63318e-18
GAMG:  Solving for p, Initial residual = 0.00186313, Final residual = 7.81833e-07, No Iterations 8
time step continuity errors : sum local = 7.08386e-10, global = -1.13851e-19, cumulative = 1.51933e-18
ExecutionTime = 0.05 s  ClockTime = 0 s

Time = 0.26

Courant Number mean: 0.0349449 max: 0.3029
smoothSolver:  Solving for Ux, Initial residual = 0.0053391, Final residual = 1.65057e-06, No Iterations 3
smoothSolver:  Solving for Uy, Initial residual = 0.00916257, Final residual = 4.83402e-06, No Iterations 3
GAMG:  Solving for p, Initial residual = 0.0172257, Final residual = 0.000676722, No Iterations 2
time step continuity errors : sum local = 5.47072e-07, global = 1.58984e-19, cumulative = 1.67832e-18
GAMG:  Solving for p, Initial residual = 0.0017538, Final residual = 6.1796e-07, No Iterations 8
time step continuity errors : sum local = 5.74186e-10, global = 1.409e-19, cumulative = 1.81922e-18
ExecutionTime = 0.05 s  ClockTime = 0 s

Time = 0.265

Courant Number mean: 0.0353242 max: 0.305313
smoothSolver:  Solving for Ux, Initial residual = 0.00519897, Final residual = 1.66932e-06, No Iterations 3
smoothSolver:  Solving for Uy, Initial residual = 0.00897128, Final residual = 4.92464e-06, No Iterations 3
GAMG:  Solving for p, Initial residual = 0.0164961, Final residual = 0.000665636, No Iterations 2
time step continuity errors : sum local = 5.49675e-07, global = 1.03315e-19, cumulative = 1.92253e-18
GAMG:  Solving for p, Initial residual = 0.00170211, Final residual = 6.16643e-07, No Iterations 8
time step continuity errors : sum local = 5.85814e-10, global = -8.71021e-20, cumulative = 1.83543e-18
ExecutionTime = 0.05 s  ClockTime = 0 s

Time = 0.27

Courant Number mean: 0.0356947 max: 0.308009
smoothSolver:  Solving for Ux, Initial residual = 0.00506881, Final residual = 1.68323e-06, No Iterations 3
smoothSolver:  Solving for Uy, Initial residual = 0.00878235, Final residual = 5.00665e-06, No Iterations 3
GAMG:  Solving for p, Initial residual = 0.0157569, Final residual = 0.000648116, No Iterations 2
time step continuity errors : sum local = 5.47187e-07, global = -4.5102e-20, cumulative = 1.79033e-18
GAMG:  Solving for p, Initial residual = 0.0016553, Final residual = 6.05643e-07, No Iterations 8
time step continuity errors : sum local = 5.88196e-10, global = 3.1681e-20, cumulative = 1.82201e-18
ExecutionTime = 0.05 s  ClockTime = 0 s

Time = 0.275

Courant Number mean: 0.0360547 max: 0.310486
smoothSolver:  Solving for Ux, Initial residual = 0.00495113, Final residual = 1.69177e-06, No Iterations 3
smoothSolver:  Solving for Uy, Initial residual = 0.00859489, Final residual = 5.07661e-06, No Iterations 3
GAMG:  Solving for p, Initial residual = 0.015282, Final residual = 0.000639979, No Iterations 2
time step continuity errors : sum local = 5.52187e-07, global = 3.31699e-20, cumulative = 1.85518e-18
GAMG:  Solving for p, Initial residual = 0.00160094, Final residual = 6.29583e-07, No Iterations 8
time step continuity errors : sum local = 6.24294e-10, global = -4.87416e-20, cumulative = 1.80644e-18
ExecutionTime = 0.05 s  ClockTime = 0 s

Time = 0.28

Courant Number mean: 0.0364034 max: 0.312756
smoothSolver:  Solving for Ux, Initial residual = 0.00484539, Final residual = 1.69378e-06, No Iterations 3
smoothSolver:  Solving for Uy, Initial residual = 0.00841296, Final residual = 5.13662e-06, No Iterations 3
GAMG:  Solving for p, Initial residual = 0.0164908, Final residual = 0.000587096, No Iterations 2
time step continuity errors : sum local = 5.16824e-07, global = -2.73176e-20, cumulative = 1.77912e-18
GAMG:  Solving for p, Initial residual = 0.00158754, Final residual = 6.31879e-07, No Iterations 8
time step continuity errors : sum local = 6.38754e-10, global = -8.48481e-20, cumulative = 1.69427e-18
ExecutionTime = 0.06 s  ClockTime = 0 s

Time = 0.285

Courant Number mean: 0.0367427 max: 0.314762
smoothSolver:  Solving for Ux, Initial residual = 0.00475241, Final residual = 1.68941e-06, No Iterations 3
smoothSolver:  Solving for Uy, Initial residual = 0.00825517, Final residual = 5.17937e-06, No Iterations 3
GAMG:  Solving for p, Initial residual = 0.0143105, Final residual = 0.000628723, No Iterations 2
time step continuity errors : sum local = 5.63366e-07, global = 2.06795e-21, cumulative = 1.69634e-18
GAMG:  Solving for p, Initial residual = 0.001483, Final residual = 6.07877e-07, No Iterations 8
time step continuity errors : sum local = 6.26217e-10, global = -2.92925e-19, cumulative = 1.40341e-18
ExecutionTime = 0.06 s  ClockTime = 0 s

Time = 0.29

Courant Number mean: 0.0370769 max: 0.316623
smoothSolver:  Solving for Ux, Initial residual = 0.00466345, Final residual = 1.67941e-06, No Iterations 3
smoothSolver:  Solving for Uy, Initial residual = 0.00807615, Final residual = 5.22395e-06, No Iterations 3
GAMG:  Solving for p, Initial residual = 0.0143771, Final residual = 0.00062559, No Iterations 2
time step continuity errors : sum local = 5.71194e-07, global = 7.80031e-20, cumulative = 1.48142e-18
GAMG:  Solving for p, Initial residual = 0.00145601, Final residual = 6.98127e-07, No Iterations 8
time step continuity errors : sum local = 7.3175e-10, global = 3.08497e-19, cumulative = 1.78991e-18
ExecutionTime = 0.06 s  ClockTime = 0 s

Time = 0.295

Courant Number mean: 0.0374047 max: 0.318314
smoothSolver:  Solving for Ux, Initial residual = 0.00458306, Final residual = 1.65815e-06, No Iterations 3
smoothSolver:  Solving for Uy, Initial residual = 0.00791781, Final residual = 5.25492e-06, No Iterations 3
GAMG:  Solving for p, Initial residual = 0.0119492, Final residual = 0.000569871, No Iterations 2
time step continuity errors : sum local = 5.28198e-07, global = 2.45673e-20, cumulative = 1.81448e-18
GAMG:  Solving for p, Initial residual = 0.00123071, Final residual = 6.22837e-07, No Iterations 8
time step continuity errors : sum local = 6.60995e-10, global = 1.22878e-19, cumulative = 1.93736e-18
ExecutionTime = 0.06 s  ClockTime = 0 s

Time = 0.3

Courant Number mean: 0.0377243 max: 0.319855
smoothSolver:  Solving for Ux, Initial residual = 0.00452511, Final residual = 1.72536e-06, No Iterations 3
smoothSolver:  Solving for Uy, Initial residual = 0.00774828, Final residual = 5.27924e-06, No Iterations 3
GAMG:  Solving for p, Initial residual = 0.0111885, Final residual = 0.00055206, No Iterations 2
time step continuity errors : sum local = 5.18294e-07, global = 1.08505e-19, cumulative = 2.04587e-18
GAMG:  Solving for p, Initial residual = 0.00118239, Final residual = 6.16037e-07, No Iterations 8
time step continuity errors : sum local = 6.62181e-10, global = -1.83779e-19, cumulative = 1.86209e-18
ExecutionTime = 0.06 s  ClockTime = 0 s

Time = 0.305

Courant Number mean: 0.0380378 max: 0.321253
smoothSolver:  Solving for Ux, Initial residual = 0.00445886, Final residual = 1.75733e-06, No Iterations 3
smoothSolver:  Solving for Uy, Initial residual = 0.00759061, Final residual = 5.289e-06, No Iterations 3
GAMG:  Solving for p, Initial residual = 0.0117289, Final residual = 0.000676072, No Iterations 2
time step continuity errors : sum local = 6.41248e-07, global = -9.0659e-20, cumulative = 1.77143e-18
GAMG:  Solving for p, Initial residual = 0.00121238, Final residual = 5.71657e-07, No Iterations 8
time step continuity errors : sum local = 6.23594e-10, global = 2.71729e-20, cumulative = 1.7986e-18
ExecutionTime = 0.06 s  ClockTime = 0 s

Time = 0.31

Courant Number mean: 0.0383452 max: 0.322511
smoothSolver:  Solving for Ux, Initial residual = 0.00438785, Final residual = 1.77431e-06, No Iterations 3
smoothSolver:  Solving for Uy, Initial residual = 0.00742968, Final residual = 5.30548e-06, No Iterations 3
GAMG:  Solving for p, Initial residual = 0.0108942, Final residual = 0.000607228, No Iterations 2
time step continuity errors : sum local = 5.8409e-07, global = -1.84958e-19, cumulative = 1.61364e-18
GAMG:  Solving for p, Initial residual = 0.00114352, Final residual = 6.06683e-07, No Iterations 8
time step continuity errors : sum local = 6.70226e-10, global = -1.44715e-19, cumulative = 1.46893e-18
ExecutionTime = 0.06 s  ClockTime = 0 s

Time = 0.315

Courant Number mean: 0.0386449 max: 0.323645
smoothSolver:  Solving for Ux, Initial residual = 0.00432079, Final residual = 1.78168e-06, No Iterations 3
smoothSolver:  Solving for Uy, Initial residual = 0.00728144, Final residual = 5.3004e-06, No Iterations 3
GAMG:  Solving for p, Initial residual = 0.0104602, Final residual = 0.00057791, No Iterations 2
time step continuity errors : sum local = 5.64e-07, global = 1.85371e-19, cumulative = 1.6543e-18
GAMG:  Solving for p, Initial residual = 0.00108858, Final residual = 6.18527e-07, No Iterations 8
time step continuity errors : sum local = 6.92349e-10, global = -5.46146e-20, cumulative = 1.59968e-18
ExecutionTime = 0.06 s  ClockTime = 0 s

Time = 0.32

Courant Number mean: 0.038938 max: 0.324666
smoothSolver:  Solving for Ux, Initial residual = 0.00427377, Final residual = 1.78204e-06, No Iterations 3
smoothSolver:  Solving for Uy, Initial residual = 0.007144, Final residual = 5.28118e-06, No Iterations 3
GAMG:  Solving for p, Initial residual = 0.0102322, Final residual = 0.000572566, No Iterations 2
time step continuity errors : sum local = 5.65758e-07, global = -5.59174e-20, cumulative = 1.54377e-18
GAMG:  Solving for p, Initial residual = 0.00103877, Final residual = 6.06577e-07, No Iterations 8
time step continuity errors : sum local = 6.87236e-10, global = -1.85516e-19, cumulative = 1.35825e-18
ExecutionTime = 0.06 s  ClockTime = 0 s

Time = 0.325

Courant Number mean: 0.0392274 max: 0.32558
smoothSolver:  Solving for Ux, Initial residual = 0.00423114, Final residual = 1.77486e-06, No Iterations 3
smoothSolver:  Solving for Uy, Initial residual = 0.00701249, Final residual = 5.24642e-06, No Iterations 3
GAMG:  Solving for p, Initial residual = 0.0103217, Final residual = 0.000564412, No Iterations 2
time step continuity errors : sum local = 5.63832e-07, global = -7.80031e-20, cumulative = 1.28025e-18
GAMG:  Solving for p, Initial residual = 0.00100217, Final residual = 5.94359e-07, No Iterations 8
time step continuity errors : sum local = 6.80726e-10, global = -1.28378e-19, cumulative = 1.15187e-18
ExecutionTime = 0.06 s  ClockTime = 0 s

Time = 0.33

Courant Number mean: 0.0395115 max: 0.3264
smoothSolver:  Solving for Ux, Initial residual = 0.00418909, Final residual = 1.76049e-06, No Iterations 3
smoothSolver:  Solving for Uy, Initial residual = 0.00688337, Final residual = 5.20926e-06, No Iterations 3
GAMG:  Solving for p, Initial residual = 0.0111369, Final residual = 0.000543751, No Iterations 2
time step continuity errors : sum local = 5.50307e-07, global = 1.3359e-19, cumulative = 1.28546e-18
GAMG:  Solving for p, Initial residual = 0.000931963, Final residual = 5.33285e-07, No Iterations 8
time step continuity errors : sum local = 6.19001e-10, global = -1.84048e-20, cumulative = 1.26705e-18
ExecutionTime = 0.06 s  ClockTime = 0 s

Time = 0.335

Courant Number mean: 0.0397954 max: 0.327134
smoothSolver:  Solving for Ux, Initial residual = 0.0041594, Final residual = 1.74289e-06, No Iterations 3
smoothSolver:  Solving for Uy, Initial residual = 0.00675734, Final residual = 5.16673e-06, No Iterations 3
GAMG:  Solving for p, Initial residual = 0.0103948, Final residual = 0.000582639, No Iterations 2
time step continuity errors : sum local = 5.9499e-07, global = 8.35452e-21, cumulative = 1.27541e-18
GAMG:  Solving for p, Initial residual = 0.000961936, Final residual = 7.14667e-07, No Iterations 8
time step continuity errors : sum local = 8.3483e-10, global = -3.83398e-20, cumulative = 1.23707e-18
ExecutionTime = 0.07 s  ClockTime = 0 s

Time = 0.34

Courant Number mean: 0.0400747 max: 0.327786
smoothSolver:  Solving for Ux, Initial residual = 0.00412363, Final residual = 1.70291e-06, No Iterations 3
smoothSolver:  Solving for Uy, Initial residual = 0.00665098, Final residual = 5.12993e-06, No Iterations 3
GAMG:  Solving for p, Initial residual = 0.0100648, Final residual = 0.000566533, No Iterations 2
time step continuity errors : sum local = 5.83834e-07, global = 2.19616e-20, cumulative = 1.25903e-18
GAMG:  Solving for p, Initial residual = 0.000907416, Final residual = 6.62435e-07, No Iterations 8
time step continuity errors : sum local = 7.8055e-10, global = -1.13717e-19, cumulative = 1.14531e-18
ExecutionTime = 0.07 s  ClockTime = 0 s

Time = 0.345

Courant Number mean: 0.040357 max: 0.32836
smoothSolver:  Solving for Ux, Initial residual = 0.00408169, Final residual = 1.66743e-06, No Iterations 3
smoothSolver:  Solving for Uy, Initial residual = 0.00654777, Final residual = 5.08571e-06, No Iterations 3
GAMG:  Solving for p, Initial residual = 0.009187, Final residual = 0.000570062, No Iterations 2
time step continuity errors : sum local = 5.92797e-07, global = 3.80503e-21, cumulative = 1.14912e-18
GAMG:  Solving for p, Initial residual = 0.00085484, Final residual = 6.41246e-07, No Iterations 8
time step continuity errors : sum local = 7.62806e-10, global = -9.68422e-20, cumulative = 1.05228e-18
ExecutionTime = 0.07 s  ClockTime = 0 s

Time = 0.35

Courant Number mean: 0.0406457 max: 0.328862
smoothSolver:  Solving for Ux, Initial residual = 0.00404781, Final residual = 1.64677e-06, No Iterations 3
smoothSolver:  Solving for Uy, Initial residual = 0.00643979, Final residual = 5.03699e-06, No Iterations 3
GAMG:  Solving for p, Initial residual = 0.0116749, Final residual = 0.000547935, No Iterations 2
time step continuity errors : sum local = 5.7474e-07, global = -7.86642e-20, cumulative = 9.73613e-19
GAMG:  Solving for p, Initial residual = 0.000908973, Final residual = 6.08181e-07, No Iterations 8
time step continuity errors : sum local = 7.30459e-10, global = -3.02335e-20, cumulative = 9.43379e-19
ExecutionTime = 0.07 s  ClockTime = 0 s

Time = 0.355

Courant Number mean: 0.0409293 max: 0.329315
smoothSolver:  Solving for Ux, Initial residual = 0.00400788, Final residual = 1.59369e-06, No Iterations 3
smoothSolver:  Solving for Uy, Initial residual = 0.00631122, Final residual = 4.98774e-06, No Iterations 3
GAMG:  Solving for p, Initial residual = 0.0109427, Final residual = 0.00053267, No Iterations 2
time step continuity errors : sum local = 5.62385e-07, global = 1.29785e-19, cumulative = 1.07316e-18
GAMG:  Solving for p, Initial residual = 0.000808317, Final residual = 5.3983e-07, No Iterations 8
time step continuity errors : sum local = 6.50336e-10, global = 4.48332e-20, cumulative = 1.118e-18
ExecutionTime = 0.07 s  ClockTime = 0 s

Time = 0.36

Courant Number mean: 0.0412055 max: 0.329714
smoothSolver:  Solving for Ux, Initial residual = 0.00400508, Final residual = 1.72784e-06, No Iterations 3
smoothSolver:  Solving for Uy, Initial residual = 0.00618333, Final residual = 4.92904e-06, No Iterations 3
GAMG:  Solving for p, Initial residual = 0.0094163, Final residual = 0.00054905, No Iterations 2
time step continuity errors : sum local = 5.83268e-07, global = 1.63782e-20, cumulative = 1.13438e-18
GAMG:  Solving for p, Initial residual = 0.000802638, Final residual = 6.05083e-07, No Iterations 8
time step continuity errors : sum local = 7.36419e-10, global = 1.28978e-19, cumulative = 1.26335e-18
ExecutionTime = 0.07 s  ClockTime = 0 s

Time = 0.365

Courant Number mean: 0.0414771 max: 0.330073
smoothSolver:  Solving for Ux, Initial residual = 0.00396797, Final residual = 1.66103e-06, No Iterations 3
smoothSolver:  Solving for Uy, Initial residual = 0.0060762, Final residual = 4.85636e-06, No Iterations 3
GAMG:  Solving for p, Initial residual = 0.00795608, Final residual = 0.000539126, No Iterations 2
time step continuity errors : sum local = 5.78037e-07, global = -1.46866e-19, cumulative = 1.11649e-18
GAMG:  Solving for p, Initial residual = 0.000648612, Final residual = 5.15161e-07, No Iterations 8
time step continuity errors : sum local = 6.2948e-10, global = -1.04225e-20, cumulative = 1.10607e-18
ExecutionTime = 0.07 s  ClockTime = 0 s

Time = 0.37

Courant Number mean: 0.0417475 max: 0.330362
smoothSolver:  Solving for Ux, Initial residual = 0.00394424, Final residual = 1.67844e-06, No Iterations 3
smoothSolver:  Solving for Uy, Initial residual = 0.00599146, Final residual = 4.79646e-06, No Iterations 3
GAMG:  Solving for p, Initial residual = 0.00766279, Final residual = 0.000530583, No Iterations 2
time step continuity errors : sum local = 5.70405e-07, global = 1.60432e-19, cumulative = 1.2665e-18
GAMG:  Solving for p, Initial residual = 0.000635585, Final residual = 4.87936e-07, No Iterations 8
time step continuity errors : sum local = 5.98619e-10, global = 5.75925e-21, cumulative = 1.27226e-18
ExecutionTime = 0.07 s  ClockTime = 0 s

Time = 0.375

Courant Number mean: 0.0420279 max: 0.330594
smoothSolver:  Solving for Ux, Initial residual = 0.00391592, Final residual = 1.64621e-06, No Iterations 3
smoothSolver:  Solving for Uy, Initial residual = 0.00590762, Final residual = 4.72908e-06, No Iterations 3
GAMG:  Solving for p, Initial residual = 0.00937007, Final residual = 0.000585523, No Iterations 2
time step continuity errors : sum local = 6.3083e-07, global = -1.27262e-19, cumulative = 1.14499e-18
GAMG:  Solving for p, Initial residual = 0.000651031, Final residual = 5.35841e-07, No Iterations 8
time step continuity errors : sum local = 6.56567e-10, global = -2.29863e-19, cumulative = 9.15131e-19
ExecutionTime = 0.07 s  ClockTime = 0 s

Time = 0.38

Courant Number mean: 0.0423071 max: 0.330747
smoothSolver:  Solving for Ux, Initial residual = 0.00389086, Final residual = 1.62907e-06, No Iterations 3
smoothSolver:  Solving for Uy, Initial residual = 0.00586237, Final residual = 4.67429e-06, No Iterations 3
GAMG:  Solving for p, Initial residual = 0.00682149, Final residual = 0.000553441, No Iterations 2
time step continuity errors : sum local = 5.95687e-07, global = -1.07368e-19, cumulative = 8.07763e-19
GAMG:  Solving for p, Initial residual = 0.000605502, Final residual = 5.17281e-07, No Iterations 8
time step continuity errors : sum local = 6.36197e-10, global = -3.07608e-20, cumulative = 7.77002e-19
ExecutionTime = 0.07 s  ClockTime = 0 s

Time = 0.385

Courant Number mean: 0.042584 max: 0.330872
smoothSolver:  Solving for Ux, Initial residual = 0.00386813, Final residual = 1.59967e-06, No Iterations 3
smoothSolver:  Solving for Uy, Initial residual = 0.00577693, Final residual = 4.59823e-06, No Iterations 3
GAMG:  Solving for p, Initial residual = 0.00682026, Final residual = 0.000528139, No Iterations 2
time step continuity errors : sum local = 5.72047e-07, global = 1.74514e-19, cumulative = 9.51517e-19
GAMG:  Solving for p, Initial residual = 0.000563514, Final residual = 9.90036e-07, No Iterations 7
time step continuity errors : sum local = 1.21753e-09, global = 1.80119e-20, cumulative = 9.69529e-19
ExecutionTime = 0.07 s  ClockTime = 0 s

Time = 0.39

Courant Number mean: 0.0428621 max: 0.330973
smoothSolver:  Solving for Ux, Initial residual = 0.00384525, Final residual = 1.56946e-06, No Iterations 3
smoothSolver:  Solving for Uy, Initial residual = 0.00569589, Final residual = 4.52723e-06, No Iterations 3
GAMG:  Solving for p, Initial residual = 0.00660976, Final residual = 0.000575386, No Iterations 2
time step continuity errors : sum local = 6.24941e-07, global = 2.07002e-19, cumulative = 1.17653e-18
GAMG:  Solving for p, Initial residual = 0.000586584, Final residual = 5.43706e-07, No Iterations 8
time step continuity errors : sum local = 6.74057e-10, global = 1.12662e-19, cumulative = 1.28919e-18
ExecutionTime = 0.08 s  ClockTime = 0 s

Time = 0.395

Courant Number mean: 0.0431395 max: 0.331051
smoothSolver:  Solving for Ux, Initial residual = 0.00383332, Final residual = 1.53826e-06, No Iterations 3
smoothSolver:  Solving for Uy, Initial residual = 0.00561724, Final residual = 4.46076e-06, No Iterations 3
GAMG:  Solving for p, Initial residual = 0.00601002, Final residual = 0.000527706, No Iterations 2
time step continuity errors : sum local = 5.75436e-07, global = 9.26029e-20, cumulative = 1.3818e-18
GAMG:  Solving for p, Initial residual = 0.000534751, Final residual = 4.62235e-07, No Iterations 8
time step continuity errors : sum local = 5.75955e-10, global = 2.07917e-19, cumulative = 1.58971e-18
ExecutionTime = 0.08 s  ClockTime = 0 s

Time = 0.4

Courant Number mean: 0.0434125 max: 0.331119
smoothSolver:  Solving for Ux, Initial residual = 0.00382231, Final residual = 1.50518e-06, No Iterations 3
smoothSolver:  Solving for Uy, Initial residual = 0.00554156, Final residual = 4.38809e-06, No Iterations 3
GAMG:  Solving for p, Initial residual = 0.00577251, Final residual = 0.000526578, No Iterations 2
time step continuity errors : sum local = 5.76098e-07, global = 5.91434e-20, cumulative = 1.64886e-18
GAMG:  Solving for p, Initial residual = 0.00052143, Final residual = 4.57328e-07, No Iterations 8
time step continuity errors : sum local = 5.71647e-10, global = -1.93175e-19, cumulative = 1.45568e-18
ExecutionTime = 0.08 s  ClockTime = 0 s

Time = 0.405

Courant Number mean: 0.0436815 max: 0.331177
smoothSolver:  Solving for Ux, Initial residual = 0.00380886, Final residual = 1.47177e-06, No Iterations 3
smoothSolver:  Solving for Uy, Initial residual = 0.00547041, Final residual = 4.31998e-06, No Iterations 3
GAMG:  Solving for p, Initial residual = 0.00578995, Final residual = 0.000526688, No Iterations 2
time step continuity errors : sum local = 5.7803e-07, global = 2.36987e-20, cumulative = 1.47938e-18
GAMG:  Solving for p, Initial residual = 0.000515557, Final residual = 9.73027e-07, No Iterations 7
time step continuity errors : sum local = 1.21091e-09, global = -1.31819e-20, cumulative = 1.4662e-18
ExecutionTime = 0.08 s  ClockTime = 0 s

Time = 0.41

Courant Number mean: 0.0439468 max: 0.331224
smoothSolver:  Solving for Ux, Initial residual = 0.00379679, Final residual = 1.4405e-06, No Iterations 3
smoothSolver:  Solving for Uy, Initial residual = 0.00540595, Final residual = 4.25493e-06, No Iterations 3
GAMG:  Solving for p, Initial residual = 0.00584013, Final residual = 0.000527522, No Iterations 2
time step continuity errors : sum local = 5.8099e-07, global = -1.04515e-19, cumulative = 1.36168e-18
GAMG:  Solving for p, Initial residual = 0.000511295, Final residual = 9.37004e-07, No Iterations 7
time step continuity errors : sum local = 1.17042e-09, global = 6.19558e-20, cumulative = 1.42364e-18
ExecutionTime = 0.08 s  ClockTime = 0 s

Time = 0.415

Courant Number mean: 0.0442085 max: 0.331263
smoothSolver:  Solving for Ux, Initial residual = 0.00378238, Final residual = 1.41307e-06, No Iterations 3
smoothSolver:  Solving for Uy, Initial residual = 0.0053467, Final residual = 4.19254e-06, No Iterations 3
GAMG:  Solving for p, Initial residual = 0.00604259, Final residual = 0.000528919, No Iterations 2
time step continuity errors : sum local = 5.83491e-07, global = 3.3232e-19, cumulative = 1.75596e-18
GAMG:  Solving for p, Initial residual = 0.000507462, Final residual = 9.06004e-07, No Iterations 7
time step continuity errors : sum local = 1.1345e-09, global = -8.50962e-21, cumulative = 1.74745e-18
ExecutionTime = 0.08 s  ClockTime = 0 s

Time = 0.42

Courant Number mean: 0.0444676 max: 0.331294
smoothSolver:  Solving for Ux, Initial residual = 0.00376756, Final residual = 1.38574e-06, No Iterations 3
smoothSolver:  Solving for Uy, Initial residual = 0.00528776, Final residual = 4.13315e-06, No Iterations 3
GAMG:  Solving for p, Initial residual = 0.00647696, Final residual = 0.000541655, No Iterations 2
time step continuity errors : sum local = 6.00095e-07, global = 4.10695e-20, cumulative = 1.78852e-18
GAMG:  Solving for p, Initial residual = 0.000508973, Final residual = 9.25687e-07, No Iterations 7
time step continuity errors : sum local = 1.16455e-09, global = 2.03848e-20, cumulative = 1.8089e-18
ExecutionTime = 0.08 s  ClockTime = 0 s

Time = 0.425

Courant Number mean: 0.0447266 max: 0.331317
smoothSolver:  Solving for Ux, Initial residual = 0.00375303, Final residual = 1.35985e-06, No Iterations 3
smoothSolver:  Solving for Uy, Initial residual = 0.0052363, Final residual = 4.07755e-06, No Iterations 3
GAMG:  Solving for p, Initial residual = 0.00645493, Final residual = 0.000531491, No Iterations 2
time step continuity errors : sum local = 5.90544e-07, global = -1.26724e-19, cumulative = 1.68218e-18
GAMG:  Solving for p, Initial residual = 0.000522319, Final residual = 7.80521e-07, No Iterations 7
time step continuity errors : sum local = 9.86989e-10, global = -1.59491e-20, cumulative = 1.66623e-18
ExecutionTime = 0.08 s  ClockTime = 0 s

Time = 0.43

Courant Number mean: 0.0449843 max: 0.331334
smoothSolver:  Solving for Ux, Initial residual = 0.00374094, Final residual = 1.33276e-06, No Iterations 3
smoothSolver:  Solving for Uy, Initial residual = 0.00518152, Final residual = 4.01892e-06, No Iterations 3
GAMG:  Solving for p, Initial residual = 0.00619096, Final residual = 0.00052817, No Iterations 2
time step continuity errors : sum local = 5.87868e-07, global = 1.78298e-19, cumulative = 1.84453e-18
GAMG:  Solving for p, Initial residual = 0.000511771, Final residual = 7.69692e-07, No Iterations 7
time step continuity errors : sum local = 9.75341e-10, global = -2.7543e-19, cumulative = 1.5691e-18
ExecutionTime = 0.08 s  ClockTime = 0 s

Time = 0.435

Courant Number mean: 0.0452385 max: 0.331346
smoothSolver:  Solving for Ux, Initial residual = 0.0037316, Final residual = 1.30532e-06, No Iterations 3
smoothSolver:  Solving for Uy, Initial residual = 0.00513038, Final residual = 3.96394e-06, No Iterations 3
GAMG:  Solving for p, Initial residual = 0.00599359, Final residual = 0.000515144, No Iterations 2
time step continuity errors : sum local = 5.74533e-07, global = 1.40786e-19, cumulative = 1.70988e-18
GAMG:  Solving for p, Initial residual = 0.000490173, Final residual = 7.34663e-07, No Iterations 7
time step continuity errors : sum local = 9.33883e-10, global = 2.68089e-19, cumulative = 1.97797e-18
ExecutionTime = 0.08 s  ClockTime = 0 s

Time = 0.44

Courant Number mean: 0.0454909 max: 0.331351
smoothSolver:  Solving for Ux, Initial residual = 0.00371857, Final residual = 1.2781e-06, No Iterations 3
smoothSolver:  Solving for Uy, Initial residual = 0.00507994, Final residual = 3.9166e-06, No Iterations 3
GAMG:  Solving for p, Initial residual = 0.00604476, Final residual = 0.000545054, No Iterations 2
time step continuity errors : sum local = 6.09056e-07, global = -1.76934e-19, cumulative = 1.80104e-18
GAMG:  Solving for p, Initial residual = 0.000512142, Final residual = 8.49643e-07, No Iterations 7
time step continuity errors : sum local = 1.08058e-09, global = 7.94507e-20, cumulative = 1.88049e-18
ExecutionTime = 0.08 s  ClockTime = 0 s

Time = 0.445

Courant Number mean: 0.0457414 max: 0.33135
smoothSolver:  Solving for Ux, Initial residual = 0.0037053, Final residual = 1.25082e-06, No Iterations 3
smoothSolver:  Solving for Uy, Initial residual = 0.00503554, Final residual = 3.87118e-06, No Iterations 3
GAMG:  Solving for p, Initial residual = 0.00600286, Final residual = 0.000527747, No Iterations 2
time step continuity errors : sum local = 5.9103e-07, global = -1.4091e-19, cumulative = 1.73958e-18
GAMG:  Solving for p, Initial residual = 0.000497198, Final residual = 7.96221e-07, No Iterations 7
time step continuity errors : sum local = 1.01579e-09, global = -1.45791e-20, cumulative = 1.725e-18
ExecutionTime = 0.09 s  ClockTime = 0 s

Time = 0.45

Courant Number mean: 0.0459895 max: 0.331346
smoothSolver:  Solving for Ux, Initial residual = 0.00369064, Final residual = 1.22533e-06, No Iterations 3
smoothSolver:  Solving for Uy, Initial residual = 0.00498795, Final residual = 3.825e-06, No Iterations 3
GAMG:  Solving for p, Initial residual = 0.00626925, Final residual = 0.00052309, No Iterations 2
time step continuity errors : sum local = 5.86576e-07, global = 5.08716e-21, cumulative = 1.73009e-18
GAMG:  Solving for p, Initial residual = 0.000491885, Final residual = 7.75495e-07, No Iterations 7
time step continuity errors : sum local = 9.91159e-10, global = -6.20179e-20, cumulative = 1.66807e-18
ExecutionTime = 0.09 s  ClockTime = 0 s

Time = 0.455

Courant Number mean: 0.0462379 max: 0.331341
smoothSolver:  Solving for Ux, Initial residual = 0.00367714, Final residual = 1.19923e-06, No Iterations 3
smoothSolver:  Solving for Uy, Initial residual = 0.00494015, Final residual = 3.78061e-06, No Iterations 3
GAMG:  Solving for p, Initial residual = 0.00677247, Final residual = 0.000522682, No Iterations 2
time step continuity errors : sum local = 5.88222e-07, global = -1.33507e-19, cumulative = 1.53456e-18
GAMG:  Solving for p, Initial residual = 0.000488552, Final residual = 7.53517e-07, No Iterations 7
time step continuity errors : sum local = 9.69104e-10, global = -2.09483e-19, cumulative = 1.32508e-18
ExecutionTime = 0.09 s  ClockTime = 0 s

Time = 0.46

Courant Number mean: 0.0464842 max: 0.331335
smoothSolver:  Solving for Ux, Initial residual = 0.00366459, Final residual = 1.17213e-06, No Iterations 3
smoothSolver:  Solving for Uy, Initial residual = 0.00489992, Final residual = 3.73787e-06, No Iterations 3
GAMG:  Solving for p, Initial residual = 0.00655949, Final residual = 0.000520478, No Iterations 2
time step continuity errors : sum local = 5.86684e-07, global = -1.71309e-19, cumulative = 1.15377e-18
GAMG:  Solving for p, Initial residual = 0.000480716, Final residual = 7.28263e-07, No Iterations 7
time step continuity errors : sum local = 9.3826e-10, global = -2.95303e-20, cumulative = 1.12424e-18
ExecutionTime = 0.09 s  ClockTime = 0 s

Time = 0.465

Courant Number mean: 0.0467293 max: 0.331329
smoothSolver:  Solving for Ux, Initial residual = 0.0036503, Final residual = 1.14637e-06, No Iterations 3
smoothSolver:  Solving for Uy, Initial residual = 0.00485373, Final residual = 3.69813e-06, No Iterations 3
GAMG:  Solving for p, Initial residual = 0.00710897, Final residual = 0.00052976, No Iterations 2
time step continuity errors : sum local = 5.99166e-07, global = 1.05466e-20, cumulative = 1.13479e-18
GAMG:  Solving for p, Initial residual = 0.000486641, Final residual = 7.76137e-07, No Iterations 7
time step continuity errors : sum local = 1.00529e-09, global = -2.9398e-19, cumulative = 8.40806e-19
ExecutionTime = 0.09 s  ClockTime = 0 s

Time = 0.47

Courant Number mean: 0.0469722 max: 0.331323
smoothSolver:  Solving for Ux, Initial residual = 0.00364132, Final residual = 1.1244e-06, No Iterations 3
smoothSolver:  Solving for Uy, Initial residual = 0.00480742, Final residual = 3.65863e-06, No Iterations 3
GAMG:  Solving for p, Initial residual = 0.00832766, Final residual = 0.00053454, No Iterations 2
time step continuity errors : sum local = 6.06122e-07, global = -9.98407e-20, cumulative = 7.40966e-19
GAMG:  Solving for p, Initial residual = 0.000481342, Final residual = 7.40812e-07, No Iterations 7
time step continuity errors : sum local = 9.64002e-10, global = 3.26736e-20, cumulative = 7.73639e-19
ExecutionTime = 0.09 s  ClockTime = 0 s

Time = 0.475

Courant Number mean: 0.0472151 max: 0.331319
smoothSolver:  Solving for Ux, Initial residual = 0.00363273, Final residual = 1.10113e-06, No Iterations 3
smoothSolver:  Solving for Uy, Initial residual = 0.0047576, Final residual = 3.62108e-06, No Iterations 3
GAMG:  Solving for p, Initial residual = 0.00746647, Final residual = 0.000543644, No Iterations 2
time step continuity errors : sum local = 6.20192e-07, global = -2.97371e-20, cumulative = 7.43902e-19
GAMG:  Solving for p, Initial residual = 0.000606181, Final residual = 7.69542e-07, No Iterations 7
time step continuity errors : sum local = 1.00608e-09, global = 2.10766e-19, cumulative = 9.54668e-19
ExecutionTime = 0.09 s  ClockTime = 0 s

Time = 0.48

Courant Number mean: 0.0474631 max: 0.331298
smoothSolver:  Solving for Ux, Initial residual = 0.00362869, Final residual = 1.1457e-06, No Iterations 3
smoothSolver:  Solving for Uy, Initial residual = 0.00474482, Final residual = 3.59483e-06, No Iterations 3
GAMG:  Solving for p, Initial residual = 0.00801068, Final residual = 0.000529146, No Iterations 2
time step continuity errors : sum local = 6.02873e-07, global = -1.26269e-19, cumulative = 8.28399e-19
GAMG:  Solving for p, Initial residual = 0.000596546, Final residual = 7.24844e-07, No Iterations 7
time step continuity errors : sum local = 9.46265e-10, global = 4.37082e-19, cumulative = 1.26548e-18
ExecutionTime = 0.09 s  ClockTime = 0 s

Time = 0.485

Courant Number mean: 0.0477174 max: 0.33126
smoothSolver:  Solving for Ux, Initial residual = 0.003618, Final residual = 1.17455e-06, No Iterations 3
smoothSolver:  Solving for Uy, Initial residual = 0.00474029, Final residual = 3.56687e-06, No Iterations 3
GAMG:  Solving for p, Initial residual = 0.00821427, Final residual = 0.000543647, No Iterations 2
time step continuity errors : sum local = 6.18361e-07, global = -2.57419e-19, cumulative = 1.00806e-18
GAMG:  Solving for p, Initial residual = 0.00051515, Final residual = 7.92668e-07, No Iterations 6
time step continuity errors : sum local = 1.04228e-09, global = -4.81833e-20, cumulative = 9.59879e-19
ExecutionTime = 0.09 s  ClockTime = 0 s

Time = 0.49

Courant Number mean: 0.0479762 max: 0.331222
smoothSolver:  Solving for Ux, Initial residual = 0.00361774, Final residual = 1.18167e-06, No Iterations 3
smoothSolver:  Solving for Uy, Initial residual = 0.00467242, Final residual = 3.51805e-06, No Iterations 3
GAMG:  Solving for p, Initial residual = 0.00812282, Final residual = 0.000469189, No Iterations 2
time step continuity errors : sum local = 5.33635e-07, global = 2.5808e-20, cumulative = 9.85687e-19
GAMG:  Solving for p, Initial residual = 0.000462211, Final residual = 4.52363e-07, No Iterations 7
time step continuity errors : sum local = 5.91152e-10, global = 1.15392e-20, cumulative = 9.97226e-19
ExecutionTime = 0.09 s  ClockTime = 0 s

Time = 0.495

Courant Number mean: 0.0482312 max: 0.331183
smoothSolver:  Solving for Ux, Initial residual = 0.00361322, Final residual = 1.16062e-06, No Iterations 3
smoothSolver:  Solving for Uy, Initial residual = 0.00461803, Final residual = 3.47054e-06, No Iterations 3
GAMG:  Solving for p, Initial residual = 0.00585128, Final residual = 0.000436692, No Iterations 2
time step continuity errors : sum local = 4.9696e-07, global = 2.69371e-19, cumulative = 1.2666e-18
GAMG:  Solving for p, Initial residual = 0.000413352, Final residual = 5.7123e-07, No Iterations 7
time step continuity errors : sum local = 7.43451e-10, global = -7.37432e-20, cumulative = 1.19285e-18
ExecutionTime = 0.09 s  ClockTime = 0 s

Time = 0.5

Courant Number mean: 0.0484871 max: 0.331146
smoothSolver:  Solving for Ux, Initial residual = 0.00360436, Final residual = 1.14935e-06, No Iterations 3
smoothSolver:  Solving for Uy, Initial residual = 0.00457628, Final residual = 3.42823e-06, No Iterations 3
GAMG:  Solving for p, Initial residual = 0.00584907, Final residual = 0.000453026, No Iterations 2
time step continuity errors : sum local = 5.15225e-07, global = 2.42778e-20, cumulative = 1.21713e-18
GAMG:  Solving for p, Initial residual = 0.000441644, Final residual = 5.77409e-07, No Iterations 7
time step continuity errors : sum local = 7.52607e-10, global = -5.51316e-20, cumulative = 1.162e-18
ExecutionTime = 0.1 s  ClockTime = 0 s

Time = 0.505

Courant Number mean: 0.0487424 max: 0.331105
smoothSolver:  Solving for Ux, Initial residual = 0.0035871, Final residual = 1.13233e-06, No Iterations 3
smoothSolver:  Solving for Uy, Initial residual = 0.00454557, Final residual = 3.3973e-06, No Iterations 3
GAMG:  Solving for p, Initial residual = 0.00576477, Final residual = 0.000477339, No Iterations 2
time step continuity errors : sum local = 5.43414e-07, global = 1.38491e-19, cumulative = 1.30049e-18
GAMG:  Solving for p, Initial residual = 0.000449911, Final residual = 7.00309e-07, No Iterations 7
time step continuity errors : sum local = 9.12824e-10, global = -1.41903e-19, cumulative = 1.15859e-18
ExecutionTime = 0.1 s  ClockTime = 0 s

Time = 0.51

Courant Number mean: 0.0489977 max: 0.331063
smoothSolver:  Solving for Ux, Initial residual = 0.00357309, Final residual = 1.12378e-06, No Iterations 3
smoothSolver:  Solving for Uy, Initial residual = 0.0045166, Final residual = 3.35645e-06, No Iterations 3
GAMG:  Solving for p, Initial residual = 0.00466457, Final residual = 0.000187257, No Iterations 3
time step continuity errors : sum local = 2.18655e-07, global = -3.01921e-21, cumulative = 1.15557e-18
GAMG:  Solving for p, Initial residual = 0.000412604, Final residual = 8.75275e-07, No Iterations 6
time step continuity errors : sum local = 1.14628e-09, global = 9.88481e-21, cumulative = 1.16545e-18
ExecutionTime = 0.1 s  ClockTime = 0 s

Time = 0.515

Courant Number mean: 0.0492554 max: 0.331023
smoothSolver:  Solving for Ux, Initial residual = 0.00355987, Final residual = 1.12347e-06, No Iterations 3
smoothSolver:  Solving for Uy, Initial residual = 0.00447687, Final residual = 3.2983e-06, No Iterations 3
GAMG:  Solving for p, Initial residual = 0.00511071, Final residual = 0.000479957, No Iterations 2
time step continuity errors : sum local = 5.46301e-07, global = -4.46264e-20, cumulative = 1.12083e-18
GAMG:  Solving for p, Initial residual = 0.000438242, Final residual = 5.56167e-07, No Iterations 7
time step continuity errors : sum local = 7.30719e-10, global = 1.42647e-19, cumulative = 1.26347e-18
ExecutionTime = 0.1 s  ClockTime = 0 s

Time = 0.52

Courant Number mean: 0.0495121 max: 0.330984
smoothSolver:  Solving for Ux, Initial residual = 0.0035432, Final residual = 1.1181e-06, No Iterations 3
smoothSolver:  Solving for Uy, Initial residual = 0.004436, Final residual = 3.26106e-06, No Iterations 3
GAMG:  Solving for p, Initial residual = 0.00695874, Final residual = 0.000475135, No Iterations 2
time step continuity errors : sum local = 5.40529e-07, global = 1.90252e-20, cumulative = 1.2825e-18
GAMG:  Solving for p, Initial residual = 0.000522428, Final residual = 6.57218e-07, No Iterations 7
time step continuity errors : sum local = 8.56729e-10, global = 2.18665e-19, cumulative = 1.50117e-18
ExecutionTime = 0.1 s  ClockTime = 0 s

Time = 0.525

Courant Number mean: 0.0497668 max: 0.330939
smoothSolver:  Solving for Ux, Initial residual = 0.00351948, Final residual = 1.08725e-06, No Iterations 3
smoothSolver:  Solving for Uy, Initial residual = 0.00441124, Final residual = 3.24371e-06, No Iterations 3
GAMG:  Solving for p, Initial residual = 0.00535617, Final residual = 0.000452854, No Iterations 2
time step continuity errors : sum local = 5.16184e-07, global = 3.92414e-19, cumulative = 1.89358e-18
GAMG:  Solving for p, Initial residual = 0.000432804, Final residual = 5.52389e-07, No Iterations 7
time step continuity errors : sum local = 7.27877e-10, global = -2.1089e-19, cumulative = 1.68269e-18
ExecutionTime = 0.1 s  ClockTime = 0 s

Time = 0.53

Courant Number mean: 0.05002 max: 0.330897
smoothSolver:  Solving for Ux, Initial residual = 0.00350796, Final residual = 1.09578e-06, No Iterations 3
smoothSolver:  Solving for Uy, Initial residual = 0.00437141, Final residual = 3.19661e-06, No Iterations 3
GAMG:  Solving for p, Initial residual = 0.0057751, Final residual = 0.000483451, No Iterations 2
time step continuity errors : sum local = 5.50175e-07, global = 2.07912e-19, cumulative = 1.8906e-18
GAMG:  Solving for p, Initial residual = 0.000443748, Final residual = 6.66947e-07, No Iterations 7
time step continuity errors : sum local = 8.76424e-10, global = -1.40745e-19, cumulative = 1.74986e-18
ExecutionTime = 0.1 s  ClockTime = 0 s

Time = 0.535

Courant Number mean: 0.0502772 max: 0.330857
smoothSolver:  Solving for Ux, Initial residual = 0.0034949, Final residual = 1.0988e-06, No Iterations 3
smoothSolver:  Solving for Uy, Initial residual = 0.004333, Final residual = 3.15189e-06, No Iterations 3
GAMG:  Solving for p, Initial residual = 0.00610971, Final residual = 0.000461387, No Iterations 2
time step continuity errors : sum local = 5.28324e-07, global = 6.24108e-20, cumulative = 1.81227e-18
GAMG:  Solving for p, Initial residual = 0.000457556, Final residual = 7.12198e-07, No Iterations 6
time step continuity errors : sum local = 9.43044e-10, global = -3.91794e-19, cumulative = 1.42047e-18
ExecutionTime = 0.1 s  ClockTime = 0 s

Time = 0.54

Courant Number mean: 0.0505324 max: 0.330819
smoothSolver:  Solving for Ux, Initial residual = 0.00349088, Final residual = 1.09432e-06, No Iterations 3
smoothSolver:  Solving for Uy, Initial residual = 0.00429129, Final residual = 3.10271e-06, No Iterations 3
GAMG:  Solving for p, Initial residual = 0.00463326, Final residual = 0.000457573, No Iterations 2
time step continuity errors : sum local = 5.22074e-07, global = -1.78257e-19, cumulative = 1.24222e-18
GAMG:  Solving for p, Initial residual = 0.000420332, Final residual = 4.62127e-07, No Iterations 7
time step continuity errors : sum local = 6.157e-10, global = -1.89631e-19, cumulative = 1.05259e-18
ExecutionTime = 0.1 s  ClockTime = 0 s

Time = 0.545

Courant Number mean: 0.0507848 max: 0.330783
smoothSolver:  Solving for Ux, Initial residual = 0.00348178, Final residual = 1.08693e-06, No Iterations 3
smoothSolver:  Solving for Uy, Initial residual = 0.00425437, Final residual = 3.06093e-06, No Iterations 3
GAMG:  Solving for p, Initial residual = 0.00451884, Final residual = 0.000183074, No Iterations 3
time step continuity errors : sum local = 2.1397e-07, global = -3.45596e-19, cumulative = 7.06989e-19
GAMG:  Solving for p, Initial residual = 0.000389635, Final residual = 6.37282e-07, No Iterations 6
time step continuity errors : sum local = 8.44595e-10, global = 2.97144e-19, cumulative = 1.00413e-18
ExecutionTime = 0.1 s  ClockTime = 0 s

Time = 0.55

Courant Number mean: 0.0510348 max: 0.330748
smoothSolver:  Solving for Ux, Initial residual = 0.00347177, Final residual = 1.07851e-06, No Iterations 3
smoothSolver:  Solving for Uy, Initial residual = 0.00421873, Final residual = 3.0197e-06, No Iterations 3
GAMG:  Solving for p, Initial residual = 0.00472451, Final residual = 0.000464487, No Iterations 2
time step continuity errors : sum local = 5.30325e-07, global = -2.01873e-19, cumulative = 8.0226e-19
GAMG:  Solving for p, Initial residual = 0.000428965, Final residual = 9.79565e-07, No Iterations 6
time step continuity errors : sum local = 1.31738e-09, global = 1.94119e-19, cumulative = 9.96378e-19
ExecutionTime = 0.1 s  ClockTime = 0 s

Time = 0.555

Courant Number mean: 0.0512822 max: 0.330714
[...]
GAMG:  Solving for p, Initial residual = 6.08389e-07, Final residual = 6.08389e-07, No Iterations 0
time step continuity errors : sum local = 9.69766e-10, global = -1.04307e-19, cumulative = -7.8955e-18
GAMG:  Solving for p, Initial residual = 6.61135e-07, Final residual = 6.61135e-07, No Iterations 0
time step continuity errors : sum local = 1.04987e-09, global = 3.26571e-19, cumulative = -7.56893e-18
ExecutionTime = 1.51 s  ClockTime = 1 s

Time = 9.87

Courant Number mean: 0.113723 max: 0.344243
smoothSolver:  Solving for Ux, Initial residual = 4.8818e-07, Final residual = 4.8818e-07, No Iterations 0
smoothSolver:  Solving for Uy, Initial residual = 4.51025e-07, Final residual = 4.51025e-07, No Iterations 0
GAMG:  Solving for p, Initial residual = 1.25396e-06, Final residual = 2.9047e-07, No Iterations 1
time step continuity errors : sum local = 5.09036e-10, global = -6.39411e-20, cumulative = -7.63287e-18
GAMG:  Solving for p, Initial residual = 4.96624e-07, Final residual = 4.96624e-07, No Iterations 0
time step continuity errors : sum local = 8.22129e-10, global = 4.09041e-19, cumulative = -7.22383e-18
ExecutionTime = 1.51 s  ClockTime = 1 s

Time = 9.875

Courant Number mean: 0.113723 max: 0.344243
smoothSolver:  Solving for Ux, Initial residual = 4.83424e-07, Final residual = 4.83424e-07, No Iterations 0
smoothSolver:  Solving for Uy, Initial residual = 4.46971e-07, Final residual = 4.46971e-07, No Iterations 0
GAMG:  Solving for p, Initial residual = 8.38864e-07, Final residual = 8.38864e-07, No Iterations 0
time step continuity errors : sum local = 1.3419e-09, global = -5.00362e-19, cumulative = -7.72419e-18
GAMG:  Solving for p, Initial residual = 1.11676e-06, Final residual = 2.75682e-07, No Iterations 1
time step continuity errors : sum local = 4.77538e-10, global = -2.52207e-19, cumulative = -7.9764e-18
ExecutionTime = 1.51 s  ClockTime = 1 s

Time = 9.88

Courant Number mean: 0.113723 max: 0.344243
smoothSolver:  Solving for Ux, Initial residual = 4.81893e-07, Final residual = 4.81893e-07, No Iterations 0
smoothSolver:  Solving for Uy, Initial residual = 4.47076e-07, Final residual = 4.47076e-07, No Iterations 0
GAMG:  Solving for p, Initial residual = 6.24468e-07, Final residual = 6.24468e-07, No Iterations 0
time step continuity errors : sum local = 9.89063e-10, global = -1.90996e-19, cumulative = -8.16739e-18
GAMG:  Solving for p, Initial residual = 6.4774e-07, Final residual = 6.4774e-07, No Iterations 0
time step continuity errors : sum local = 1.02408e-09, global = -2.31114e-19, cumulative = -8.39851e-18
ExecutionTime = 1.51 s  ClockTime = 1 s

Time = 9.885

Courant Number mean: 0.113723 max: 0.344243
smoothSolver:  Solving for Ux, Initial residual = 4.80503e-07, Final residual = 4.80503e-07, No Iterations 0
smoothSolver:  Solving for Uy, Initial residual = 4.45917e-07, Final residual = 4.45917e-07, No Iterations 0
GAMG:  Solving for p, Initial residual = 1.23441e-06, Final residual = 2.67755e-07, No Iterations 1
time step continuity errors : sum local = 4.36742e-10, global = 5.30223e-20, cumulative = -8.34549e-18
GAMG:  Solving for p, Initial residual = 4.70026e-07, Final residual = 4.70026e-07, No Iterations 0
time step continuity errors : sum local = 7.43938e-10, global = 1.83221e-19, cumulative = -8.16227e-18
ExecutionTime = 1.51 s  ClockTime = 1 s

Time = 9.89

Courant Number mean: 0.113723 max: 0.344243
smoothSolver:  Solving for Ux, Initial residual = 4.76117e-07, Final residual = 4.76117e-07, No Iterations 0
smoothSolver:  Solving for Uy, Initial residual = 4.42748e-07, Final residual = 4.42748e-07, No Iterations 0
GAMG:  Solving for p, Initial residual = 9.53135e-07, Final residual = 9.53135e-07, No Iterations 0
time step continuity errors : sum local = 1.44259e-09, global = -2.69661e-20, cumulative = -8.18923e-18
GAMG:  Solving for p, Initial residual = 1.22503e-06, Final residual = 3.16729e-07, No Iterations 1
time step continuity errors : sum local = 4.98571e-10, global = -6.76634e-20, cumulative = -8.25689e-18
ExecutionTime = 1.51 s  ClockTime = 1 s

Time = 9.895

Courant Number mean: 0.113723 max: 0.344243
smoothSolver:  Solving for Ux, Initial residual = 4.76825e-07, Final residual = 4.76825e-07, No Iterations 0
smoothSolver:  Solving for Uy, Initial residual = 4.41418e-07, Final residual = 4.41418e-07, No Iterations 0
GAMG:  Solving for p, Initial residual = 7.26451e-07, Final residual = 7.26451e-07, No Iterations 0
time step continuity errors : sum local = 1.10007e-09, global = -5.51564e-19, cumulative = -8.80846e-18
GAMG:  Solving for p, Initial residual = 7.97142e-07, Final residual = 7.97142e-07, No Iterations 0
time step continuity errors : sum local = 1.20703e-09, global = 4.35593e-19, cumulative = -8.37287e-18
ExecutionTime = 1.51 s  ClockTime = 1 s

Time = 9.9

Courant Number mean: 0.113723 max: 0.344243
smoothSolver:  Solving for Ux, Initial residual = 4.75578e-07, Final residual = 4.75578e-07, No Iterations 0
smoothSolver:  Solving for Uy, Initial residual = 4.40279e-07, Final residual = 4.40279e-07, No Iterations 0
GAMG:  Solving for p, Initial residual = 1.40083e-06, Final residual = 3.12148e-07, No Iterations 1
time step continuity errors : sum local = 4.96578e-10, global = -3.78849e-20, cumulative = -8.41075e-18
GAMG:  Solving for p, Initial residual = 5.06778e-07, Final residual = 5.06778e-07, No Iterations 0
time step continuity errors : sum local = 7.9217e-10, global = 3.00928e-19, cumulative = -8.10982e-18
ExecutionTime = 1.51 s  ClockTime = 1 s

Time = 9.905

Courant Number mean: 0.113723 max: 0.344243
smoothSolver:  Solving for Ux, Initial residual = 4.70951e-07, Final residual = 4.70951e-07, No Iterations 0
smoothSolver:  Solving for Uy, Initial residual = 4.35575e-07, Final residual = 4.35575e-07, No Iterations 0
GAMG:  Solving for p, Initial residual = 9.2009e-07, Final residual = 9.2009e-07, No Iterations 0
time step continuity errors : sum local = 1.41988e-09, global = -3.30045e-19, cumulative = -8.43987e-18
GAMG:  Solving for p, Initial residual = 1.17929e-06, Final residual = 3.10621e-07, No Iterations 1
time step continuity errors : sum local = 5.09187e-10, global = 4.93165e-19, cumulative = -7.9467e-18
ExecutionTime = 1.51 s  ClockTime = 1 s

Time = 9.91

Courant Number mean: 0.113724 max: 0.344243
smoothSolver:  Solving for Ux, Initial residual = 4.70323e-07, Final residual = 4.70323e-07, No Iterations 0
smoothSolver:  Solving for Uy, Initial residual = 4.3487e-07, Final residual = 4.3487e-07, No Iterations 0
GAMG:  Solving for p, Initial residual = 7.37984e-07, Final residual = 7.37984e-07, No Iterations 0
time step continuity errors : sum local = 1.15824e-09, global = 6.92681e-19, cumulative = -7.25402e-18
GAMG:  Solving for p, Initial residual = 7.93691e-07, Final residual = 7.93691e-07, No Iterations 0
time step continuity errors : sum local = 1.24284e-09, global = 5.98631e-19, cumulative = -6.65539e-18
ExecutionTime = 1.51 s  ClockTime = 1 s

Time = 9.915

Courant Number mean: 0.113724 max: 0.344243
smoothSolver:  Solving for Ux, Initial residual = 4.68989e-07, Final residual = 4.68989e-07, No Iterations 0
smoothSolver:  Solving for Uy, Initial residual = 4.33748e-07, Final residual = 4.33748e-07, No Iterations 0
GAMG:  Solving for p, Initial residual = 1.33643e-06, Final residual = 3.0453e-07, No Iterations 1
time step continuity errors : sum local = 5.32188e-10, global = -2.45176e-19, cumulative = -6.90057e-18
GAMG:  Solving for p, Initial residual = 5.00326e-07, Final residual = 5.00326e-07, No Iterations 0
time step continuity errors : sum local = 8.29551e-10, global = 1.82972e-19, cumulative = -6.71759e-18
ExecutionTime = 1.51 s  ClockTime = 1 s

Time = 9.92

Courant Number mean: 0.113724 max: 0.344243
smoothSolver:  Solving for Ux, Initial residual = 4.65947e-07, Final residual = 4.65947e-07, No Iterations 0
smoothSolver:  Solving for Uy, Initial residual = 4.30086e-07, Final residual = 4.30086e-07, No Iterations 0
GAMG:  Solving for p, Initial residual = 1.09709e-06, Final residual = 2.46826e-07, No Iterations 1
time step continuity errors : sum local = 4.32521e-10, global = -4.61567e-20, cumulative = -6.76375e-18
GAMG:  Solving for p, Initial residual = 4.70624e-07, Final residual = 4.70624e-07, No Iterations 0
time step continuity errors : sum local = 7.72061e-10, global = -9.27269e-20, cumulative = -6.85648e-18
ExecutionTime = 1.51 s  ClockTime = 1 s

Time = 9.925

Courant Number mean: 0.113724 max: 0.344243
smoothSolver:  Solving for Ux, Initial residual = 4.6488e-07, Final residual = 4.6488e-07, No Iterations 0
smoothSolver:  Solving for Uy, Initial residual = 4.29118e-07, Final residual = 4.29118e-07, No Iterations 0
GAMG:  Solving for p, Initial residual = 9.19599e-07, Final residual = 9.19599e-07, No Iterations 0
time step continuity errors : sum local = 1.431e-09, global = 4.58506e-19, cumulative = -6.39797e-18
GAMG:  Solving for p, Initial residual = 1.17527e-06, Final residual = 2.95434e-07, No Iterations 1
time step continuity errors : sum local = 4.84464e-10, global = 4.86051e-19, cumulative = -5.91192e-18
ExecutionTime = 1.51 s  ClockTime = 1 s

Time = 9.93

Courant Number mean: 0.113724 max: 0.344243
smoothSolver:  Solving for Ux, Initial residual = 4.60978e-07, Final residual = 4.60978e-07, No Iterations 0
smoothSolver:  Solving for Uy, Initial residual = 4.29209e-07, Final residual = 4.29209e-07, No Iterations 0
GAMG:  Solving for p, Initial residual = 7.80803e-07, Final residual = 7.80803e-07, No Iterations 0
time step continuity errors : sum local = 1.18279e-09, global = -5.78365e-19, cumulative = -6.49028e-18
GAMG:  Solving for p, Initial residual = 8.44629e-07, Final residual = 8.44629e-07, No Iterations 0
time step continuity errors : sum local = 1.27922e-09, global = -2.63126e-19, cumulative = -6.75341e-18
ExecutionTime = 1.51 s  ClockTime = 1 s

Time = 9.935

Courant Number mean: 0.113724 max: 0.344243
smoothSolver:  Solving for Ux, Initial residual = 4.59711e-07, Final residual = 4.59711e-07, No Iterations 0
smoothSolver:  Solving for Uy, Initial residual = 4.28086e-07, Final residual = 4.28086e-07, No Iterations 0
GAMG:  Solving for p, Initial residual = 1.53412e-06, Final residual = 3.30486e-07, No Iterations 1
time step continuity errors : sum local = 5.26701e-10, global = 9.5953e-21, cumulative = -6.74382e-18
GAMG:  Solving for p, Initial residual = 5.18952e-07, Final residual = 5.18952e-07, No Iterations 0
time step continuity errors : sum local = 8.12932e-10, global = -1.08692e-19, cumulative = -6.85251e-18
ExecutionTime = 1.51 s  ClockTime = 1 s

Time = 9.94

Courant Number mean: 0.113724 max: 0.344243
smoothSolver:  Solving for Ux, Initial residual = 4.57583e-07, Final residual = 4.57583e-07, No Iterations 0
smoothSolver:  Solving for Uy, Initial residual = 4.23021e-07, Final residual = 4.23021e-07, No Iterations 0
GAMG:  Solving for p, Initial residual = 1.01907e-06, Final residual = 2.57465e-07, No Iterations 1
time step continuity errors : sum local = 4.35916e-10, global = 5.28568e-20, cumulative = -6.79965e-18
GAMG:  Solving for p, Initial residual = 4.81796e-07, Final residual = 4.81796e-07, No Iterations 0
time step continuity errors : sum local = 7.76617e-10, global = -4.11771e-19, cumulative = -7.21142e-18
ExecutionTime = 1.51 s  ClockTime = 1 s

Time = 9.945

Courant Number mean: 0.113724 max: 0.344244
smoothSolver:  Solving for Ux, Initial residual = 4.57652e-07, Final residual = 4.57652e-07, No Iterations 0
smoothSolver:  Solving for Uy, Initial residual = 4.20883e-07, Final residual = 4.20883e-07, No Iterations 0
GAMG:  Solving for p, Initial residual = 8.11045e-07, Final residual = 8.11045e-07, No Iterations 0
time step continuity errors : sum local = 1.27666e-09, global = -3.26571e-19, cumulative = -7.53799e-18
GAMG:  Solving for p, Initial residual = 1.06344e-06, Final residual = 2.67868e-07, No Iterations 1
time step continuity errors : sum local = 4.55053e-10, global = 3.37407e-19, cumulative = -7.20058e-18
ExecutionTime = 1.52 s  ClockTime = 1 s

Time = 9.95

Courant Number mean: 0.113724 max: 0.344244
smoothSolver:  Solving for Ux, Initial residual = 4.54199e-07, Final residual = 4.54199e-07, No Iterations 0
smoothSolver:  Solving for Uy, Initial residual = 4.21051e-07, Final residual = 4.21051e-07, No Iterations 0
GAMG:  Solving for p, Initial residual = 6.34361e-07, Final residual = 6.34361e-07, No Iterations 0
time step continuity errors : sum local = 1.01168e-09, global = -1.27055e-19, cumulative = -7.32764e-18
GAMG:  Solving for p, Initial residual = 6.64265e-07, Final residual = 6.64265e-07, No Iterations 0
time step continuity errors : sum local = 1.05709e-09, global = 2.04644e-19, cumulative = -7.123e-18
ExecutionTime = 1.52 s  ClockTime = 1 s

Time = 9.955

Courant Number mean: 0.113724 max: 0.344244
smoothSolver:  Solving for Ux, Initial residual = 4.5294e-07, Final residual = 4.5294e-07, No Iterations 0
smoothSolver:  Solving for Uy, Initial residual = 4.19949e-07, Final residual = 4.19949e-07, No Iterations 0
GAMG:  Solving for p, Initial residual = 1.29457e-06, Final residual = 2.79225e-07, No Iterations 1
time step continuity errors : sum local = 4.88899e-10, global = 1.57826e-19, cumulative = -6.96517e-18
GAMG:  Solving for p, Initial residual = 4.6576e-07, Final residual = 4.6576e-07, No Iterations 0
time step continuity errors : sum local = 7.72199e-10, global = 5.08716e-20, cumulative = -6.9143e-18
ExecutionTime = 1.52 s  ClockTime = 1 s

Time = 9.96

Courant Number mean: 0.113724 max: 0.344244
smoothSolver:  Solving for Ux, Initial residual = 4.49841e-07, Final residual = 4.49841e-07, No Iterations 0
smoothSolver:  Solving for Uy, Initial residual = 4.15501e-07, Final residual = 4.15501e-07, No Iterations 0
GAMG:  Solving for p, Initial residual = 8.93691e-07, Final residual = 8.93691e-07, No Iterations 0
time step continuity errors : sum local = 1.42212e-09, global = 8.59441e-20, cumulative = -6.82835e-18
GAMG:  Solving for p, Initial residual = 1.16666e-06, Final residual = 2.72327e-07, No Iterations 1
time step continuity errors : sum local = 4.68293e-10, global = 1.91492e-19, cumulative = -6.63686e-18
ExecutionTime = 1.52 s  ClockTime = 1 s

Time = 9.965

Courant Number mean: 0.113725 max: 0.344244
smoothSolver:  Solving for Ux, Initial residual = 4.48922e-07, Final residual = 4.48922e-07, No Iterations 0
smoothSolver:  Solving for Uy, Initial residual = 4.15446e-07, Final residual = 4.15446e-07, No Iterations 0
GAMG:  Solving for p, Initial residual = 6.0402e-07, Final residual = 6.0402e-07, No Iterations 0
time step continuity errors : sum local = 9.51635e-10, global = 1.37643e-19, cumulative = -6.49922e-18
GAMG:  Solving for p, Initial residual = 6.39625e-07, Final residual = 6.39625e-07, No Iterations 0
time step continuity errors : sum local = 1.00538e-09, global = -4.18553e-19, cumulative = -6.91777e-18
ExecutionTime = 1.52 s  ClockTime = 1 s

Time = 9.97

Courant Number mean: 0.113725 max: 0.344244
smoothSolver:  Solving for Ux, Initial residual = 4.47682e-07, Final residual = 4.47682e-07, No Iterations 0
smoothSolver:  Solving for Uy, Initial residual = 4.14364e-07, Final residual = 4.14364e-07, No Iterations 0
GAMG:  Solving for p, Initial residual = 1.1852e-06, Final residual = 2.55993e-07, No Iterations 1
time step continuity errors : sum local = 4.39796e-10, global = 2.54772e-20, cumulative = -6.89229e-18
GAMG:  Solving for p, Initial residual = 4.4604e-07, Final residual = 4.4604e-07, No Iterations 0
time step continuity errors : sum local = 7.2843e-10, global = -2.30618e-19, cumulative = -7.12291e-18
ExecutionTime = 1.52 s  ClockTime = 1 s

Time = 9.975

Courant Number mean: 0.113725 max: 0.344244
smoothSolver:  Solving for Ux, Initial residual = 4.43384e-07, Final residual = 4.43384e-07, No Iterations 0
smoothSolver:  Solving for Uy, Initial residual = 4.10629e-07, Final residual = 4.10629e-07, No Iterations 0
GAMG:  Solving for p, Initial residual = 8.26186e-07, Final residual = 8.26186e-07, No Iterations 0
time step continuity errors : sum local = 1.30578e-09, global = -3.10689e-19, cumulative = -7.4336e-18
GAMG:  Solving for p, Initial residual = 1.08171e-06, Final residual = 2.68875e-07, No Iterations 1
time step continuity errors : sum local = 4.53699e-10, global = -3.49897e-20, cumulative = -7.46859e-18
ExecutionTime = 1.52 s  ClockTime = 1 s

Time = 9.98

Courant Number mean: 0.113725 max: 0.344244
smoothSolver:  Solving for Ux, Initial residual = 4.42205e-07, Final residual = 4.42205e-07, No Iterations 0
smoothSolver:  Solving for Uy, Initial residual = 4.1044e-07, Final residual = 4.1044e-07, No Iterations 0
GAMG:  Solving for p, Initial residual = 6.45557e-07, Final residual = 6.45557e-07, No Iterations 0
time step continuity errors : sum local = 1.01311e-09, global = -2.85377e-19, cumulative = -7.75397e-18
GAMG:  Solving for p, Initial residual = 6.85307e-07, Final residual = 6.85307e-07, No Iterations 0
time step continuity errors : sum local = 1.0732e-09, global = -5.05159e-19, cumulative = -8.25913e-18
ExecutionTime = 1.52 s  ClockTime = 1 s

Time = 9.985

Courant Number mean: 0.113725 max: 0.344244
smoothSolver:  Solving for Ux, Initial residual = 4.40943e-07, Final residual = 4.40943e-07, No Iterations 0
smoothSolver:  Solving for Uy, Initial residual = 4.09358e-07, Final residual = 4.09358e-07, No Iterations 0
GAMG:  Solving for p, Initial residual = 1.22007e-06, Final residual = 2.81503e-07, No Iterations 1
time step continuity errors : sum local = 4.74159e-10, global = 3.60485e-19, cumulative = -7.89864e-18
GAMG:  Solving for p, Initial residual = 4.65724e-07, Final residual = 4.65724e-07, No Iterations 0
time step continuity errors : sum local = 7.53945e-10, global = -6.70016e-21, cumulative = -7.90534e-18
ExecutionTime = 1.52 s  ClockTime = 1 s

Time = 9.99

Courant Number mean: 0.113725 max: 0.344244
smoothSolver:  Solving for Ux, Initial residual = 4.38328e-07, Final residual = 4.38328e-07, No Iterations 0
smoothSolver:  Solving for Uy, Initial residual = 4.054e-07, Final residual = 4.054e-07, No Iterations 0
GAMG:  Solving for p, Initial residual = 9.69583e-07, Final residual = 9.69583e-07, No Iterations 0
time step continuity errors : sum local = 1.51918e-09, global = -2.09773e-19, cumulative = -8.11512e-18
GAMG:  Solving for p, Initial residual = 1.21577e-06, Final residual = 2.96077e-07, No Iterations 1
time step continuity errors : sum local = 4.94099e-10, global = -5.45443e-19, cumulative = -8.66056e-18
ExecutionTime = 1.52 s  ClockTime = 1 s

Time = 9.995

Courant Number mean: 0.113725 max: 0.344244
smoothSolver:  Solving for Ux, Initial residual = 4.38061e-07, Final residual = 4.38061e-07, No Iterations 0
smoothSolver:  Solving for Uy, Initial residual = 4.04649e-07, Final residual = 4.04649e-07, No Iterations 0
GAMG:  Solving for p, Initial residual = 7.13747e-07, Final residual = 7.13747e-07, No Iterations 0
time step continuity errors : sum local = 1.12326e-09, global = 8.75157e-20, cumulative = -8.57304e-18
GAMG:  Solving for p, Initial residual = 7.67241e-07, Final residual = 7.67241e-07, No Iterations 0
time step continuity errors : sum local = 1.20429e-09, global = 2.44845e-19, cumulative = -8.3282e-18
ExecutionTime = 1.52 s  ClockTime = 1 s

Time = 10

Courant Number mean: 0.113725 max: 0.344244
smoothSolver:  Solving for Ux, Initial residual = 4.36907e-07, Final residual = 4.36907e-07, No Iterations 0
smoothSolver:  Solving for Uy, Initial residual = 4.0359e-07, Final residual = 4.0359e-07, No Iterations 0
GAMG:  Solving for p, Initial residual = 1.28052e-06, Final residual = 2.73825e-07, No Iterations 1
time step continuity errors : sum local = 4.69889e-10, global = 1.58984e-19, cumulative = -8.16921e-18
GAMG:  Solving for p, Initial residual = 4.49071e-07, Final residual = 4.49071e-07, No Iterations 0
time step continuity errors : sum local = 7.36044e-10, global = 8.51996e-21, cumulative = -8.16069e-18
ExecutionTime = 1.52 s  ClockTime = 1 s

End

